McPAT (version 0.8 of Aug, 2010) is computing the target processor...
 

McPAT (version 0.8 of Aug, 2010) results  (current print level is 5)
*****************************************************************************************
  Technology 40 nm
  Using Long Channel Devices When Appropriate
  Interconnect metal projection = conservative interconnect technology projection
  Target Clock Rate (MHz) 1000

*****************************************************************************************
  System:
    Area = 22.8262 mm^2
    Peak Dynamic Power = 2.93677 W
    Subthreshold Leakage Power = 4.21513 W
    Gate Leakage Power = 0.333859 W
    Runtime Dynamic Power = 1.3645 W
    Runtime Dynamic Energy = 1.45393 J
    Total Runtime Energy = 6.30106 J

      Core 0:
        Area = 5.11302 mm^2
        Peak Dynamic Power = 0.725551 W
        Subthreshold Leakage Power = 0.910011 W
        Gate Leakage Power = 0.0793208 W
        Runtime Dynamic Power = 0.389087 W
        Runtime Dynamic Energy = 0.414588 J
        Total Runtime Energy = 1.46876 J

          Instruction Fetch Unit:
            Area = 1.07061 mm^2
            Peak Dynamic Power = 0.069507 W
            Subthreshold Leakage Power = 0.0768543 W
            Gate Leakage Power = 0.00183262 W
            Runtime Dynamic Power = 0.0933868 W
            Runtime Dynamic Energy = 0.0995076 J
            Total Runtime Energy = 0.183352 J

              Instruction Cache:
                Area = 1.06646 mm^2
                Peak Dynamic Power = 0.0345629 W
                Subthreshold Leakage Power = 0.0723979 W
                Gate Leakage Power = 0.00168831 W
                Runtime Dynamic Power = 0.0618302 W
                Runtime Dynamic Energy = 0.0658827 J
                Total Runtime Energy = 0.144825 J

                  Data and Tag Arrays:
                    Area = 0.259164 mm^2
                    Peak Dynamic Power = 0 W
                    Subthreshold Leakage Power = 0.066312 W
                    Gate Leakage Power = 0.00138196 W
                    Runtime Dynamic Power = 0.0618152 W
                    Runtime Dynamic Energy = 0.0658667 J
                    Total Runtime Energy = 0.137997 J

                  Miss Buffer:
                    Area = 0.315209 mm^2
                    Peak Dynamic Power = 0.0124784 W
                    Subthreshold Leakage Power = 0.00218421 W
                    Gate Leakage Power = 0.000109941 W
                    Runtime Dynamic Power = 5.45709e-06 W
                    Runtime Dynamic Energy = 5.81476e-06 J
                    Total Runtime Energy = 0.00245033 J

                  Fill Buffer:
                    Area = 0.246043 mm^2
                    Peak Dynamic Power = 0.0110423 W
                    Subthreshold Leakage Power = 0.00195087 W
                    Gate Leakage Power = 9.82028e-05 W
                    Runtime Dynamic Power = 4.78646e-06 W
                    Runtime Dynamic Energy = 5.10018e-06 J
                    Total Runtime Energy = 0.00218847 J

                  Prefetch Buffer:
                    Area = 0.246043 mm^2
                    Peak Dynamic Power = 0.0110423 W
                    Subthreshold Leakage Power = 0.00195087 W
                    Gate Leakage Power = 9.82028e-05 W
                    Runtime Dynamic Power = 4.78646e-06 W
                    Runtime Dynamic Energy = 5.10018e-06 J
                    Total Runtime Energy = 0.00218847 J

              Instruction Buffer:
                Area = 0.00177465 mm^2
                Peak Dynamic Power = 0.00177346 W
                Subthreshold Leakage Power = 0.000334365 W
                Gate Leakage Power = 1.02451e-05 W
                Runtime Dynamic Power = 0.00160154 W
                Runtime Dynamic Energy = 0.00170651 J
                Total Runtime Energy = 0.0020737 J

              Instruction Opcode Decoder:
                Area = 0.000733115 mm^2
                Peak Dynamic Power = 0.0110556 W
                Subthreshold Leakage Power = 0.00127003 W
                Gate Leakage Power = 4.16647e-05 W
                Runtime Dynamic Power = 0.00998385 W
                Runtime Dynamic Energy = 0.0106382 J
                Total Runtime Energy = 0.0120359 J

              Instruction Operand Decoder:
                Area = 0.00018867 mm^2
                Peak Dynamic Power = 0.0110476 W
                Subthreshold Leakage Power = 0.00032028 W
                Gate Leakage Power = 1.08411e-05 W
                Runtime Dynamic Power = 0.00997662 W
                Runtime Dynamic Energy = 0.0106305 J
                Total Runtime Energy = 0.0109833 J

              Instruction Microcode Decoder:
                Area = 0.00144948 mm^2
                Peak Dynamic Power = 0.0110675 W
                Subthreshold Leakage Power = 0.00253168 W
                Gate Leakage Power = 8.15593e-05 W
                Runtime Dynamic Power = 0.00999458 W
                Runtime Dynamic Energy = 0.0106496 J
                Total Runtime Energy = 0.0134342 J

          Load/Store Unit:
            Area = 1.11574 mm^2
            Peak Dynamic Power = 0.0490235 W
            Subthreshold Leakage Power = 0.076641 W
            Gate Leakage Power = 0.00186238 W
            Runtime Dynamic Power = 0.0300516 W
            Runtime Dynamic Energy = 0.0320212 J
            Total Runtime Energy = 0.11567 J

              Data Cache:
                Area = 1.06646 mm^2
                Peak Dynamic Power = 0.0345629 W
                Subthreshold Leakage Power = 0.0723979 W
                Gate Leakage Power = 0.00168831 W
                Runtime Dynamic Power = 0.0214618 W
                Runtime Dynamic Energy = 0.0228685 J
                Total Runtime Energy = 0.101811 J

                  Data and Tag Arrays:
                    Area = 0.259164 mm^2
                    Peak Dynamic Power = 0 W
                    Subthreshold Leakage Power = 0.066312 W
                    Gate Leakage Power = 0.00138196 W
                    Runtime Dynamic Power = 0.0212884 W
                    Runtime Dynamic Energy = 0.0226837 J
                    Total Runtime Energy = 0.0948144 J

                  Miss Buffer:
                    Area = 0.315209 mm^2
                    Peak Dynamic Power = 0.0124784 W
                    Subthreshold Leakage Power = 0.00218421 W
                    Gate Leakage Power = 0.000109941 W
                    Runtime Dynamic Power = 6.80161e-05 W
                    Runtime Dynamic Energy = 7.24741e-05 J
                    Total Runtime Energy = 0.00251699 J

                  Fill Buffer:
                    Area = 0.246043 mm^2
                    Peak Dynamic Power = 0.0110423 W
                    Subthreshold Leakage Power = 0.00195087 W
                    Gate Leakage Power = 9.82028e-05 W
                    Runtime Dynamic Power = 5.96575e-05 W
                    Runtime Dynamic Energy = 6.35676e-05 J
                    Total Runtime Energy = 0.00224694 J

                  Prefetch Buffer:
                    Area = 0.246043 mm^2
                    Peak Dynamic Power = 0.0110423 W
                    Subthreshold Leakage Power = 0.00195087 W
                    Gate Leakage Power = 9.82028e-05 W
                    Runtime Dynamic Power = 4.57642e-05 W
                    Runtime Dynamic Energy = 4.87636e-05 J
                    Total Runtime Energy = 0.00223214 J

              Store Queue:
                Area = 0.0492795 mm^2
                Peak Dynamic Power = 0.0144605 W
                Subthreshold Leakage Power = 0.00424307 W
                Gate Leakage Power = 0.000174072 W
                Runtime Dynamic Power = 0.00858975 W
                Runtime Dynamic Energy = 0.00915274 J
                Total Runtime Energy = 0.0138594 J

          Memory Management Unit:
            Area = 0.0640137 mm^2
            Peak Dynamic Power = 0.020655 W
            Subthreshold Leakage Power = 0.0107524 W
            Gate Leakage Power = 0.00041319 W
            Runtime Dynamic Power = 0.011059 W
            Runtime Dynamic Energy = 0.0117838 J
            Total Runtime Energy = 0.0236812 J

              Instruction TLB:
                Area = 0.0196043 mm^2
                Peak Dynamic Power = 0.00880588 W
                Subthreshold Leakage Power = 0.00418736 W
                Gate Leakage Power = 0.000171372 W
                Runtime Dynamic Power = 0.00855633 W
                Runtime Dynamic Energy = 0.00911713 J
                Total Runtime Energy = 0.0137615 J

              Data TLB:
                Area = 0.0444093 mm^2
                Peak Dynamic Power = 0.0118492 W
                Subthreshold Leakage Power = 0.00656505 W
                Gate Leakage Power = 0.000241817 W
                Runtime Dynamic Power = 0.00250267 W
                Runtime Dynamic Energy = 0.00266669 J
                Total Runtime Energy = 0.0099197 J

          Execution Unit:
            Area = 2.22898 mm^2
            Peak Dynamic Power = 0.586365 W
            Subthreshold Leakage Power = 0.497274 W
            Gate Leakage Power = 0.0497488 W
            Runtime Dynamic Power = 0.0712675 W
            Runtime Dynamic Energy = 0.0759385 J
            Total Runtime Energy = 0.658814 J

              Int Bypass Data:
                Area = 0.00171352 mm^2
                Peak Dynamic Power = 0 W
                Subthreshold Leakage Power = 0 W
                Gate Leakage Power = 0 W
                Runtime Dynamic Power = 1.65048e-09 W
                Runtime Dynamic Energy = 1.75865e-09 J
                Total Runtime Energy = 1.75865e-09 J

              Int Bypass Tag:
                Area = 0.00021419 mm^2
                Peak Dynamic Power = 0 W
                Subthreshold Leakage Power = 0 W
                Gate Leakage Power = 0 W
                Runtime Dynamic Power = 2.0631e-10 W
                Runtime Dynamic Energy = 2.19832e-10 J
                Total Runtime Energy = 2.19832e-10 J

              Mul Bypass Data:
                Area = 0.00383958 mm^2
                Peak Dynamic Power = 0 W
                Subthreshold Leakage Power = 0 W
                Gate Leakage Power = 0 W
                Runtime Dynamic Power = 5.28332e-10 W
                Runtime Dynamic Energy = 5.6296e-10 J
                Total Runtime Energy = 5.6296e-10 J

              Mul Bypass Tag:
                Area = 0.000319965 mm^2
                Peak Dynamic Power = 0 W
                Subthreshold Leakage Power = 0 W
                Gate Leakage Power = 0 W
                Runtime Dynamic Power = 4.40276e-11 W
                Runtime Dynamic Energy = 4.69133e-11 J
                Total Runtime Energy = 4.69133e-11 J

              FP Bypass Data:
                Area = 0.00547065 mm^2
                Peak Dynamic Power = 0 W
                Subthreshold Leakage Power = 0 W
                Gate Leakage Power = 0 W
                Runtime Dynamic Power = 1.50554e-09 W
                Runtime Dynamic Energy = 1.60421e-09 J
                Total Runtime Energy = 1.60421e-09 J

              FP Bypass Tag:
                Area = 0.00050165 mm^2
                Peak Dynamic Power = 0 W
                Subthreshold Leakage Power = 0 W
                Gate Leakage Power = 0 W
                Runtime Dynamic Power = 1.38056e-10 W
                Runtime Dynamic Energy = 1.47104e-10 J
                Total Runtime Energy = 1.47104e-10 J

              Register File Unit:
                Area = 0.0294128 mm^2
                Peak Dynamic Power = 0.0343622 W
                Subthreshold Leakage Power = 0.00191002 W
                Gate Leakage Power = 5.14853e-05 W
                Runtime Dynamic Power = 6.54479e-10 W
                Runtime Dynamic Energy = 6.97375e-10 J
                Total Runtime Energy = 0.00209007 J

                  Integer Register File:
                    Area = 0.0186223 mm^2
                    Peak Dynamic Power = 0.028914 W
                    Subthreshold Leakage Power = 0.000762251 W
                    Gate Leakage Power = 2.05735e-05 W
                    Runtime Dynamic Power = 5.16867e-10 W
                    Runtime Dynamic Energy = 5.50744e-10 J
                    Total Runtime Energy = 0.000834133 J

                  FP Register File:
                    Area = 0.0107906 mm^2
                    Peak Dynamic Power = 0.00544812 W
                    Subthreshold Leakage Power = 0.00114777 W
                    Gate Leakage Power = 3.09119e-05 W
                    Runtime Dynamic Power = 1.37612e-10 W
                    Runtime Dynamic Energy = 1.46631e-10 J
                    Total Runtime Energy = 0.00125594 J

              Integer ALU(s):
                Area = 0.138846 mm^2
                Peak Dynamic Power = 0.157715 W
                Subthreshold Leakage Power = 0.085206 W
                Gate Leakage Power = 0.00854828 W
                Runtime Dynamic Power = 0.0711858 W
                Runtime Dynamic Energy = 0.0758515 J
                Total Runtime Energy = 0.175751 J

              Floating Point Unit(s):
                Area = 1.8404 mm^2
                Peak Dynamic Power = 0.236573 W
                Subthreshold Leakage Power = 0.282349 W
                Gate Leakage Power = 0.0283266 W
                Runtime Dynamic Power = 8.16196e-05 W
                Runtime Dynamic Energy = 8.69691e-05 J
                Total Runtime Energy = 0.331125 J

              Multiply/Divide Unit(s):
                Area = 0.20827 mm^2
                Peak Dynamic Power = 0.157715 W
                Subthreshold Leakage Power = 0.127809 W
                Gate Leakage Power = 0.0128224 W
                Runtime Dynamic Power = 1.48014e-09 W
                Runtime Dynamic Energy = 1.57715e-09 J
                Total Runtime Energy = 0.149849 J

          Undifferentiated Core:
            Area = 0.528329 mm^2
            Peak Dynamic Power = 0 W
            Subthreshold Leakage Power = 0.16211 W
            Gate Leakage Power = 0.0162637 W
            Runtime Dynamic Power = 0 W
            Runtime Dynamic Energy = 0 J
            Total Runtime Energy = 0.190065 J

          Pipeline?:
            Area = 0.105346 mm^2
            Peak Dynamic Power = 0 W
            Subthreshold Leakage Power = 0.0863787 W
            Gate Leakage Power = 0.00920013 W
            Runtime Dynamic Power = 0.183322 W
            Runtime Dynamic Energy = 0.195337 J
            Total Runtime Energy = 0.297181 J

      Core 1:
        Area = 5.11302 mm^2
        Peak Dynamic Power = 0.725551 W
        Subthreshold Leakage Power = 0.910011 W
        Gate Leakage Power = 0.0793208 W
        Runtime Dynamic Power = 0.348869 W
        Runtime Dynamic Energy = 0.371735 J
        Total Runtime Energy = 1.42591 J

          Instruction Fetch Unit:
            Area = 1.07061 mm^2
            Peak Dynamic Power = 0.069507 W
            Subthreshold Leakage Power = 0.0768543 W
            Gate Leakage Power = 0.00183262 W
            Runtime Dynamic Power = 0.0749635 W
            Runtime Dynamic Energy = 0.0798767 J
            Total Runtime Energy = 0.163721 J

              Instruction Cache:
                Area = 1.06646 mm^2
                Peak Dynamic Power = 0.0345629 W
                Subthreshold Leakage Power = 0.0723979 W
                Gate Leakage Power = 0.00168831 W
                Runtime Dynamic Power = 0.0496322 W
                Runtime Dynamic Energy = 0.0528852 J
                Total Runtime Energy = 0.131827 J

                  Data and Tag Arrays:
                    Area = 0.259164 mm^2
                    Peak Dynamic Power = 0 W
                    Subthreshold Leakage Power = 0.066312 W
                    Gate Leakage Power = 0.00138196 W
                    Runtime Dynamic Power = 0.0496202 W
                    Runtime Dynamic Energy = 0.0528724 J
                    Total Runtime Energy = 0.125003 J

                  Miss Buffer:
                    Area = 0.315209 mm^2
                    Peak Dynamic Power = 0.0124784 W
                    Subthreshold Leakage Power = 0.00218421 W
                    Gate Leakage Power = 0.000109941 W
                    Runtime Dynamic Power = 4.3425e-06 W
                    Runtime Dynamic Energy = 4.62711e-06 J
                    Total Runtime Energy = 0.00244915 J

                  Fill Buffer:
                    Area = 0.246043 mm^2
                    Peak Dynamic Power = 0.0110423 W
                    Subthreshold Leakage Power = 0.00195087 W
                    Gate Leakage Power = 9.82028e-05 W
                    Runtime Dynamic Power = 3.80884e-06 W
                    Runtime Dynamic Energy = 4.05848e-06 J
                    Total Runtime Energy = 0.00218743 J

                  Prefetch Buffer:
                    Area = 0.246043 mm^2
                    Peak Dynamic Power = 0.0110423 W
                    Subthreshold Leakage Power = 0.00195087 W
                    Gate Leakage Power = 9.82028e-05 W
                    Runtime Dynamic Power = 3.80884e-06 W
                    Runtime Dynamic Energy = 4.05848e-06 J
                    Total Runtime Energy = 0.00218743 J

              Instruction Buffer:
                Area = 0.00177465 mm^2
                Peak Dynamic Power = 0.00177346 W
                Subthreshold Leakage Power = 0.000334365 W
                Gate Leakage Power = 1.02451e-05 W
                Runtime Dynamic Power = 0.0012856 W
                Runtime Dynamic Energy = 0.00136986 J
                Total Runtime Energy = 0.00173705 J

              Instruction Opcode Decoder:
                Area = 0.000733115 mm^2
                Peak Dynamic Power = 0.0110556 W
                Subthreshold Leakage Power = 0.00127003 W
                Gate Leakage Power = 4.16647e-05 W
                Runtime Dynamic Power = 0.0080143 W
                Runtime Dynamic Energy = 0.00853957 J
                Total Runtime Energy = 0.00993724 J

              Instruction Operand Decoder:
                Area = 0.00018867 mm^2
                Peak Dynamic Power = 0.0110476 W
                Subthreshold Leakage Power = 0.00032028 W
                Gate Leakage Power = 1.08411e-05 W
                Runtime Dynamic Power = 0.00800849 W
                Runtime Dynamic Energy = 0.00853338 J
                Total Runtime Energy = 0.00888621 J

              Instruction Microcode Decoder:
                Area = 0.00144948 mm^2
                Peak Dynamic Power = 0.0110675 W
                Subthreshold Leakage Power = 0.00253168 W
                Gate Leakage Power = 8.15593e-05 W
                Runtime Dynamic Power = 0.00802291 W
                Runtime Dynamic Energy = 0.00854875 J
                Total Runtime Energy = 0.0113333 J

          Load/Store Unit:
            Area = 1.11574 mm^2
            Peak Dynamic Power = 0.0490235 W
            Subthreshold Leakage Power = 0.076641 W
            Gate Leakage Power = 0.00186238 W
            Runtime Dynamic Power = 0.0244702 W
            Runtime Dynamic Energy = 0.026074 J
            Total Runtime Energy = 0.109723 J

              Data Cache:
                Area = 1.06646 mm^2
                Peak Dynamic Power = 0.0345629 W
                Subthreshold Leakage Power = 0.0723979 W
                Gate Leakage Power = 0.00168831 W
                Runtime Dynamic Power = 0.0174757 W
                Runtime Dynamic Energy = 0.0186211 J
                Total Runtime Energy = 0.0975631 J

                  Data and Tag Arrays:
                    Area = 0.259164 mm^2
                    Peak Dynamic Power = 0 W
                    Subthreshold Leakage Power = 0.066312 W
                    Gate Leakage Power = 0.00138196 W
                    Runtime Dynamic Power = 0.017341 W
                    Runtime Dynamic Energy = 0.0184775 J
                    Total Runtime Energy = 0.0906083 J

                  Miss Buffer:
                    Area = 0.315209 mm^2
                    Peak Dynamic Power = 0.0124784 W
                    Subthreshold Leakage Power = 0.00218421 W
                    Gate Leakage Power = 0.000109941 W
                    Runtime Dynamic Power = 5.32367e-05 W
                    Runtime Dynamic Energy = 5.67259e-05 J
                    Total Runtime Energy = 0.00250124 J

                  Fill Buffer:
                    Area = 0.246043 mm^2
                    Peak Dynamic Power = 0.0110423 W
                    Subthreshold Leakage Power = 0.00195087 W
                    Gate Leakage Power = 9.82028e-05 W
                    Runtime Dynamic Power = 4.66943e-05 W
                    Runtime Dynamic Energy = 4.97548e-05 J
                    Total Runtime Energy = 0.00223313 J

                  Prefetch Buffer:
                    Area = 0.246043 mm^2
                    Peak Dynamic Power = 0.0110423 W
                    Subthreshold Leakage Power = 0.00195087 W
                    Gate Leakage Power = 9.82028e-05 W
                    Runtime Dynamic Power = 3.47854e-05 W
                    Runtime Dynamic Energy = 3.70653e-05 J
                    Total Runtime Energy = 0.00222044 J

              Store Queue:
                Area = 0.0492795 mm^2
                Peak Dynamic Power = 0.0144605 W
                Subthreshold Leakage Power = 0.00424307 W
                Gate Leakage Power = 0.000174072 W
                Runtime Dynamic Power = 0.00699447 W
                Runtime Dynamic Energy = 0.0074529 J
                Total Runtime Energy = 0.0121595 J

          Memory Management Unit:
            Area = 0.0640137 mm^2
            Peak Dynamic Power = 0.020655 W
            Subthreshold Leakage Power = 0.0107524 W
            Gate Leakage Power = 0.00041319 W
            Runtime Dynamic Power = 0.00889515 W
            Runtime Dynamic Energy = 0.00947815 J
            Total Runtime Energy = 0.0213756 J

              Instruction TLB:
                Area = 0.0196043 mm^2
                Peak Dynamic Power = 0.00880588 W
                Subthreshold Leakage Power = 0.00418736 W
                Gate Leakage Power = 0.000171372 W
                Runtime Dynamic Power = 0.00687016 W
                Runtime Dynamic Energy = 0.00732045 J
                Total Runtime Energy = 0.0119649 J

              Data TLB:
                Area = 0.0444093 mm^2
                Peak Dynamic Power = 0.0118492 W
                Subthreshold Leakage Power = 0.00656505 W
                Gate Leakage Power = 0.000241817 W
                Runtime Dynamic Power = 0.00202498 W
                Runtime Dynamic Energy = 0.00215771 J
                Total Runtime Energy = 0.00941071 J

          Execution Unit:
            Area = 2.22898 mm^2
            Peak Dynamic Power = 0.586365 W
            Subthreshold Leakage Power = 0.497274 W
            Gate Leakage Power = 0.0497488 W
            Runtime Dynamic Power = 0.0572184 W
            Runtime Dynamic Energy = 0.0609686 J
            Total Runtime Energy = 0.643845 J

              Int Bypass Data:
                Area = 0.00171352 mm^2
                Peak Dynamic Power = 0 W
                Subthreshold Leakage Power = 0 W
                Gate Leakage Power = 0 W
                Runtime Dynamic Power = 1.65048e-09 W
                Runtime Dynamic Energy = 1.75865e-09 J
                Total Runtime Energy = 1.75865e-09 J

              Int Bypass Tag:
                Area = 0.00021419 mm^2
                Peak Dynamic Power = 0 W
                Subthreshold Leakage Power = 0 W
                Gate Leakage Power = 0 W
                Runtime Dynamic Power = 2.0631e-10 W
                Runtime Dynamic Energy = 2.19832e-10 J
                Total Runtime Energy = 2.19832e-10 J

              Mul Bypass Data:
                Area = 0.00383958 mm^2
                Peak Dynamic Power = 0 W
                Subthreshold Leakage Power = 0 W
                Gate Leakage Power = 0 W
                Runtime Dynamic Power = 5.28332e-10 W
                Runtime Dynamic Energy = 5.6296e-10 J
                Total Runtime Energy = 5.6296e-10 J

              Mul Bypass Tag:
                Area = 0.000319965 mm^2
                Peak Dynamic Power = 0 W
                Subthreshold Leakage Power = 0 W
                Gate Leakage Power = 0 W
                Runtime Dynamic Power = 4.40276e-11 W
                Runtime Dynamic Energy = 4.69133e-11 J
                Total Runtime Energy = 4.69133e-11 J

              FP Bypass Data:
                Area = 0.00547065 mm^2
                Peak Dynamic Power = 0 W
                Subthreshold Leakage Power = 0 W
                Gate Leakage Power = 0 W
                Runtime Dynamic Power = 1.50554e-09 W
                Runtime Dynamic Energy = 1.60421e-09 J
                Total Runtime Energy = 1.60421e-09 J

              FP Bypass Tag:
                Area = 0.00050165 mm^2
                Peak Dynamic Power = 0 W
                Subthreshold Leakage Power = 0 W
                Gate Leakage Power = 0 W
                Runtime Dynamic Power = 1.38056e-10 W
                Runtime Dynamic Energy = 1.47104e-10 J
                Total Runtime Energy = 1.47104e-10 J

              Register File Unit:
                Area = 0.0294128 mm^2
                Peak Dynamic Power = 0.0343622 W
                Subthreshold Leakage Power = 0.00191002 W
                Gate Leakage Power = 5.14853e-05 W
                Runtime Dynamic Power = 6.54479e-10 W
                Runtime Dynamic Energy = 6.97375e-10 J
                Total Runtime Energy = 0.00209007 J

                  Integer Register File:
                    Area = 0.0186223 mm^2
                    Peak Dynamic Power = 0.028914 W
                    Subthreshold Leakage Power = 0.000762251 W
                    Gate Leakage Power = 2.05735e-05 W
                    Runtime Dynamic Power = 5.16867e-10 W
                    Runtime Dynamic Energy = 5.50744e-10 J
                    Total Runtime Energy = 0.000834133 J

                  FP Register File:
                    Area = 0.0107906 mm^2
                    Peak Dynamic Power = 0.00544812 W
                    Subthreshold Leakage Power = 0.00114777 W
                    Gate Leakage Power = 3.09119e-05 W
                    Runtime Dynamic Power = 1.37612e-10 W
                    Runtime Dynamic Energy = 1.46631e-10 J
                    Total Runtime Energy = 0.00125594 J

              Integer ALU(s):
                Area = 0.138846 mm^2
                Peak Dynamic Power = 0.157715 W
                Subthreshold Leakage Power = 0.085206 W
                Gate Leakage Power = 0.00854828 W
                Runtime Dynamic Power = 0.0571377 W
                Runtime Dynamic Energy = 0.0608826 J
                Total Runtime Energy = 0.160782 J

              Floating Point Unit(s):
                Area = 1.8404 mm^2
                Peak Dynamic Power = 0.236573 W
                Subthreshold Leakage Power = 0.282349 W
                Gate Leakage Power = 0.0283266 W
                Runtime Dynamic Power = 8.06538e-05 W
                Runtime Dynamic Energy = 8.59401e-05 J
                Total Runtime Energy = 0.331124 J

              Multiply/Divide Unit(s):
                Area = 0.20827 mm^2
                Peak Dynamic Power = 0.157715 W
                Subthreshold Leakage Power = 0.127809 W
                Gate Leakage Power = 0.0128224 W
                Runtime Dynamic Power = 1.48014e-09 W
                Runtime Dynamic Energy = 1.57715e-09 J
                Total Runtime Energy = 0.149849 J

          Undifferentiated Core:
            Area = 0.528329 mm^2
            Peak Dynamic Power = 0 W
            Subthreshold Leakage Power = 0.16211 W
            Gate Leakage Power = 0.0162637 W
            Runtime Dynamic Power = 0 W
            Runtime Dynamic Energy = 0 J
            Total Runtime Energy = 0.190065 J

          Pipeline?:
            Area = 0.105346 mm^2
            Peak Dynamic Power = 0 W
            Subthreshold Leakage Power = 0.0863787 W
            Gate Leakage Power = 0.00920013 W
            Runtime Dynamic Power = 0.183322 W
            Runtime Dynamic Energy = 0.195337 J
            Total Runtime Energy = 0.297181 J

      Core 2:
        Area = 5.11302 mm^2
        Peak Dynamic Power = 0.725551 W
        Subthreshold Leakage Power = 0.910011 W
        Gate Leakage Power = 0.0793208 W
        Runtime Dynamic Power = 0.311535 W
        Runtime Dynamic Energy = 0.331954 J
        Total Runtime Energy = 1.38613 J

          Instruction Fetch Unit:
            Area = 1.07061 mm^2
            Peak Dynamic Power = 0.069507 W
            Subthreshold Leakage Power = 0.0768543 W
            Gate Leakage Power = 0.00183262 W
            Runtime Dynamic Power = 0.057616 W
            Runtime Dynamic Energy = 0.0613922 J
            Total Runtime Energy = 0.145236 J

              Instruction Cache:
                Area = 1.06646 mm^2
                Peak Dynamic Power = 0.0345629 W
                Subthreshold Leakage Power = 0.0723979 W
                Gate Leakage Power = 0.00168831 W
                Runtime Dynamic Power = 0.0381462 W
                Runtime Dynamic Energy = 0.0406464 J
                Total Runtime Energy = 0.119588 J

                  Data and Tag Arrays:
                    Area = 0.259164 mm^2
                    Peak Dynamic Power = 0 W
                    Subthreshold Leakage Power = 0.066312 W
                    Gate Leakage Power = 0.00138196 W
                    Runtime Dynamic Power = 0.0381315 W
                    Runtime Dynamic Energy = 0.0406308 J
                    Total Runtime Energy = 0.112762 J

                  Miss Buffer:
                    Area = 0.315209 mm^2
                    Peak Dynamic Power = 0.0124784 W
                    Subthreshold Leakage Power = 0.00218421 W
                    Gate Leakage Power = 0.000109941 W
                    Runtime Dynamic Power = 5.33004e-06 W
                    Runtime Dynamic Energy = 5.67939e-06 J
                    Total Runtime Energy = 0.0024502 J

                  Fill Buffer:
                    Area = 0.246043 mm^2
                    Peak Dynamic Power = 0.0110423 W
                    Subthreshold Leakage Power = 0.00195087 W
                    Gate Leakage Power = 9.82028e-05 W
                    Runtime Dynamic Power = 4.67503e-06 W
                    Runtime Dynamic Energy = 4.98144e-06 J
                    Total Runtime Energy = 0.00218836 J

                  Prefetch Buffer:
                    Area = 0.246043 mm^2
                    Peak Dynamic Power = 0.0110423 W
                    Subthreshold Leakage Power = 0.00195087 W
                    Gate Leakage Power = 9.82028e-05 W
                    Runtime Dynamic Power = 4.67503e-06 W
                    Runtime Dynamic Energy = 4.98144e-06 J
                    Total Runtime Energy = 0.00218836 J

              Instruction Buffer:
                Area = 0.00177465 mm^2
                Peak Dynamic Power = 0.00177346 W
                Subthreshold Leakage Power = 0.000334365 W
                Gate Leakage Power = 1.02451e-05 W
                Runtime Dynamic Power = 0.000988116 W
                Runtime Dynamic Energy = 0.00105288 J
                Total Runtime Energy = 0.00142008 J

              Instruction Opcode Decoder:
                Area = 0.000733115 mm^2
                Peak Dynamic Power = 0.0110556 W
                Subthreshold Leakage Power = 0.00127003 W
                Gate Leakage Power = 4.16647e-05 W
                Runtime Dynamic Power = 0.00615983 W
                Runtime Dynamic Energy = 0.00656356 J
                Total Runtime Energy = 0.00796123 J

              Instruction Operand Decoder:
                Area = 0.00018867 mm^2
                Peak Dynamic Power = 0.0110476 W
                Subthreshold Leakage Power = 0.00032028 W
                Gate Leakage Power = 1.08411e-05 W
                Runtime Dynamic Power = 0.00615537 W
                Runtime Dynamic Energy = 0.0065588 J
                Total Runtime Energy = 0.00691162 J

              Instruction Microcode Decoder:
                Area = 0.00144948 mm^2
                Peak Dynamic Power = 0.0110675 W
                Subthreshold Leakage Power = 0.00253168 W
                Gate Leakage Power = 8.15593e-05 W
                Runtime Dynamic Power = 0.00616645 W
                Runtime Dynamic Energy = 0.00657061 J
                Total Runtime Energy = 0.00935513 J

          Load/Store Unit:
            Area = 1.11574 mm^2
            Peak Dynamic Power = 0.0490235 W
            Subthreshold Leakage Power = 0.076641 W
            Gate Leakage Power = 0.00186238 W
            Runtime Dynamic Power = 0.0199042 W
            Runtime Dynamic Energy = 0.0212088 J
            Total Runtime Energy = 0.104857 J

              Data Cache:
                Area = 1.06646 mm^2
                Peak Dynamic Power = 0.0345629 W
                Subthreshold Leakage Power = 0.0723979 W
                Gate Leakage Power = 0.00168831 W
                Runtime Dynamic Power = 0.0142517 W
                Runtime Dynamic Energy = 0.0151858 J
                Total Runtime Energy = 0.0941278 J

                  Data and Tag Arrays:
                    Area = 0.259164 mm^2
                    Peak Dynamic Power = 0 W
                    Subthreshold Leakage Power = 0.066312 W
                    Gate Leakage Power = 0.00138196 W
                    Runtime Dynamic Power = 0.014133 W
                    Runtime Dynamic Energy = 0.0150593 J
                    Total Runtime Energy = 0.0871901 J

                  Miss Buffer:
                    Area = 0.315209 mm^2
                    Peak Dynamic Power = 0.0124784 W
                    Subthreshold Leakage Power = 0.00218421 W
                    Gate Leakage Power = 0.000109941 W
                    Runtime Dynamic Power = 4.74917e-05 W
                    Runtime Dynamic Energy = 5.06044e-05 J
                    Total Runtime Energy = 0.00249512 J

                  Fill Buffer:
                    Area = 0.246043 mm^2
                    Peak Dynamic Power = 0.0110423 W
                    Subthreshold Leakage Power = 0.00195087 W
                    Gate Leakage Power = 9.82028e-05 W
                    Runtime Dynamic Power = 4.16554e-05 W
                    Runtime Dynamic Energy = 4.43856e-05 J
                    Total Runtime Energy = 0.00222776 J

                  Prefetch Buffer:
                    Area = 0.246043 mm^2
                    Peak Dynamic Power = 0.0110423 W
                    Subthreshold Leakage Power = 0.00195087 W
                    Gate Leakage Power = 9.82028e-05 W
                    Runtime Dynamic Power = 2.95258e-05 W
                    Runtime Dynamic Energy = 3.1461e-05 J
                    Total Runtime Energy = 0.00221484 J

              Store Queue:
                Area = 0.0492795 mm^2
                Peak Dynamic Power = 0.0144605 W
                Subthreshold Leakage Power = 0.00424307 W
                Gate Leakage Power = 0.000174072 W
                Runtime Dynamic Power = 0.00565256 W
                Runtime Dynamic Energy = 0.00602305 J
                Total Runtime Energy = 0.0107297 J

          Memory Management Unit:
            Area = 0.0640137 mm^2
            Peak Dynamic Power = 0.020655 W
            Subthreshold Leakage Power = 0.0107524 W
            Gate Leakage Power = 0.00041319 W
            Runtime Dynamic Power = 0.00671103 W
            Runtime Dynamic Energy = 0.00715088 J
            Total Runtime Energy = 0.0190483 J

              Instruction TLB:
                Area = 0.0196043 mm^2
                Peak Dynamic Power = 0.00880588 W
                Subthreshold Leakage Power = 0.00418736 W
                Gate Leakage Power = 0.000171372 W
                Runtime Dynamic Power = 0.0051424 W
                Runtime Dynamic Energy = 0.00547944 J
                Total Runtime Energy = 0.0101239 J

              Data TLB:
                Area = 0.0444093 mm^2
                Peak Dynamic Power = 0.0118492 W
                Subthreshold Leakage Power = 0.00656505 W
                Gate Leakage Power = 0.000241817 W
                Runtime Dynamic Power = 0.00156863 W
                Runtime Dynamic Energy = 0.00167145 J
                Total Runtime Energy = 0.00892445 J

          Execution Unit:
            Area = 2.22898 mm^2
            Peak Dynamic Power = 0.586365 W
            Subthreshold Leakage Power = 0.497274 W
            Gate Leakage Power = 0.0497488 W
            Runtime Dynamic Power = 0.0439819 W
            Runtime Dynamic Energy = 0.0468646 J
            Total Runtime Energy = 0.629741 J

              Int Bypass Data:
                Area = 0.00171352 mm^2
                Peak Dynamic Power = 0 W
                Subthreshold Leakage Power = 0 W
                Gate Leakage Power = 0 W
                Runtime Dynamic Power = 1.65048e-09 W
                Runtime Dynamic Energy = 1.75865e-09 J
                Total Runtime Energy = 1.75865e-09 J

              Int Bypass Tag:
                Area = 0.00021419 mm^2
                Peak Dynamic Power = 0 W
                Subthreshold Leakage Power = 0 W
                Gate Leakage Power = 0 W
                Runtime Dynamic Power = 2.0631e-10 W
                Runtime Dynamic Energy = 2.19832e-10 J
                Total Runtime Energy = 2.19832e-10 J

              Mul Bypass Data:
                Area = 0.00383958 mm^2
                Peak Dynamic Power = 0 W
                Subthreshold Leakage Power = 0 W
                Gate Leakage Power = 0 W
                Runtime Dynamic Power = 5.28332e-10 W
                Runtime Dynamic Energy = 5.6296e-10 J
                Total Runtime Energy = 5.6296e-10 J

              Mul Bypass Tag:
                Area = 0.000319965 mm^2
                Peak Dynamic Power = 0 W
                Subthreshold Leakage Power = 0 W
                Gate Leakage Power = 0 W
                Runtime Dynamic Power = 4.40276e-11 W
                Runtime Dynamic Energy = 4.69133e-11 J
                Total Runtime Energy = 4.69133e-11 J

              FP Bypass Data:
                Area = 0.00547065 mm^2
                Peak Dynamic Power = 0 W
                Subthreshold Leakage Power = 0 W
                Gate Leakage Power = 0 W
                Runtime Dynamic Power = 1.50554e-09 W
                Runtime Dynamic Energy = 1.60421e-09 J
                Total Runtime Energy = 1.60421e-09 J

              FP Bypass Tag:
                Area = 0.00050165 mm^2
                Peak Dynamic Power = 0 W
                Subthreshold Leakage Power = 0 W
                Gate Leakage Power = 0 W
                Runtime Dynamic Power = 1.38056e-10 W
                Runtime Dynamic Energy = 1.47104e-10 J
                Total Runtime Energy = 1.47104e-10 J

              Register File Unit:
                Area = 0.0294128 mm^2
                Peak Dynamic Power = 0.0343622 W
                Subthreshold Leakage Power = 0.00191002 W
                Gate Leakage Power = 5.14853e-05 W
                Runtime Dynamic Power = 6.54479e-10 W
                Runtime Dynamic Energy = 6.97375e-10 J
                Total Runtime Energy = 0.00209007 J

                  Integer Register File:
                    Area = 0.0186223 mm^2
                    Peak Dynamic Power = 0.028914 W
                    Subthreshold Leakage Power = 0.000762251 W
                    Gate Leakage Power = 2.05735e-05 W
                    Runtime Dynamic Power = 5.16867e-10 W
                    Runtime Dynamic Energy = 5.50744e-10 J
                    Total Runtime Energy = 0.000834133 J

                  FP Register File:
                    Area = 0.0107906 mm^2
                    Peak Dynamic Power = 0.00544812 W
                    Subthreshold Leakage Power = 0.00114777 W
                    Gate Leakage Power = 3.09119e-05 W
                    Runtime Dynamic Power = 1.37612e-10 W
                    Runtime Dynamic Energy = 1.46631e-10 J
                    Total Runtime Energy = 0.00125594 J

              Integer ALU(s):
                Area = 0.138846 mm^2
                Peak Dynamic Power = 0.157715 W
                Subthreshold Leakage Power = 0.085206 W
                Gate Leakage Power = 0.00854828 W
                Runtime Dynamic Power = 0.0439145 W
                Runtime Dynamic Energy = 0.0467928 J
                Total Runtime Energy = 0.146692 J

              Floating Point Unit(s):
                Area = 1.8404 mm^2
                Peak Dynamic Power = 0.236573 W
                Subthreshold Leakage Power = 0.282349 W
                Gate Leakage Power = 0.0283266 W
                Runtime Dynamic Power = 6.73945e-05 W
                Runtime Dynamic Energy = 7.18117e-05 J
                Total Runtime Energy = 0.33111 J

              Multiply/Divide Unit(s):
                Area = 0.20827 mm^2
                Peak Dynamic Power = 0.157715 W
                Subthreshold Leakage Power = 0.127809 W
                Gate Leakage Power = 0.0128224 W
                Runtime Dynamic Power = 1.48014e-09 W
                Runtime Dynamic Energy = 1.57715e-09 J
                Total Runtime Energy = 0.149849 J

          Undifferentiated Core:
            Area = 0.528329 mm^2
            Peak Dynamic Power = 0 W
            Subthreshold Leakage Power = 0.16211 W
            Gate Leakage Power = 0.0162637 W
            Runtime Dynamic Power = 0 W
            Runtime Dynamic Energy = 0 J
            Total Runtime Energy = 0.190065 J

          Pipeline?:
            Area = 0.105346 mm^2
            Peak Dynamic Power = 0 W
            Subthreshold Leakage Power = 0.0863787 W
            Gate Leakage Power = 0.00920013 W
            Runtime Dynamic Power = 0.183322 W
            Runtime Dynamic Energy = 0.195337 J
            Total Runtime Energy = 0.297181 J

      Core 3:
        Area = 5.11302 mm^2
        Peak Dynamic Power = 0.725551 W
        Subthreshold Leakage Power = 0.910011 W
        Gate Leakage Power = 0.0793208 W
        Runtime Dynamic Power = 0.307127 W
        Runtime Dynamic Energy = 0.327257 J
        Total Runtime Energy = 1.38143 J

          Instruction Fetch Unit:
            Area = 1.07061 mm^2
            Peak Dynamic Power = 0.069507 W
            Subthreshold Leakage Power = 0.0768543 W
            Gate Leakage Power = 0.00183262 W
            Runtime Dynamic Power = 0.0603419 W
            Runtime Dynamic Energy = 0.0642969 J
            Total Runtime Energy = 0.148141 J

              Instruction Cache:
                Area = 1.06646 mm^2
                Peak Dynamic Power = 0.0345629 W
                Subthreshold Leakage Power = 0.0723979 W
                Gate Leakage Power = 0.00168831 W
                Runtime Dynamic Power = 0.0391979 W
                Runtime Dynamic Energy = 0.041767 J
                Total Runtime Energy = 0.120709 J

                  Data and Tag Arrays:
                    Area = 0.259164 mm^2
                    Peak Dynamic Power = 0 W
                    Subthreshold Leakage Power = 0.066312 W
                    Gate Leakage Power = 0.00138196 W
                    Runtime Dynamic Power = 0.0391874 W
                    Runtime Dynamic Energy = 0.0417559 J
                    Total Runtime Energy = 0.113887 J

                  Miss Buffer:
                    Area = 0.315209 mm^2
                    Peak Dynamic Power = 0.0124784 W
                    Subthreshold Leakage Power = 0.00218421 W
                    Gate Leakage Power = 0.000109941 W
                    Runtime Dynamic Power = 3.80695e-06 W
                    Runtime Dynamic Energy = 4.05646e-06 J
                    Total Runtime Energy = 0.00244857 J

                  Fill Buffer:
                    Area = 0.246043 mm^2
                    Peak Dynamic Power = 0.0110423 W
                    Subthreshold Leakage Power = 0.00195087 W
                    Gate Leakage Power = 9.82028e-05 W
                    Runtime Dynamic Power = 3.33911e-06 W
                    Runtime Dynamic Energy = 3.55796e-06 J
                    Total Runtime Energy = 0.00218693 J

                  Prefetch Buffer:
                    Area = 0.246043 mm^2
                    Peak Dynamic Power = 0.0110423 W
                    Subthreshold Leakage Power = 0.00195087 W
                    Gate Leakage Power = 9.82028e-05 W
                    Runtime Dynamic Power = 3.33911e-06 W
                    Runtime Dynamic Energy = 3.55796e-06 J
                    Total Runtime Energy = 0.00218693 J

              Instruction Buffer:
                Area = 0.00177465 mm^2
                Peak Dynamic Power = 0.00177346 W
                Subthreshold Leakage Power = 0.000334365 W
                Gate Leakage Power = 1.02451e-05 W
                Runtime Dynamic Power = 0.00107309 W
                Runtime Dynamic Energy = 0.00114342 J
                Total Runtime Energy = 0.00151061 J

              Instruction Opcode Decoder:
                Area = 0.000733115 mm^2
                Peak Dynamic Power = 0.0110556 W
                Subthreshold Leakage Power = 0.00127003 W
                Gate Leakage Power = 4.16647e-05 W
                Runtime Dynamic Power = 0.00668952 W
                Runtime Dynamic Energy = 0.00712797 J
                Total Runtime Energy = 0.00852564 J

              Instruction Operand Decoder:
                Area = 0.00018867 mm^2
                Peak Dynamic Power = 0.0110476 W
                Subthreshold Leakage Power = 0.00032028 W
                Gate Leakage Power = 1.08411e-05 W
                Runtime Dynamic Power = 0.00668468 W
                Runtime Dynamic Energy = 0.00712281 J
                Total Runtime Energy = 0.00747563 J

              Instruction Microcode Decoder:
                Area = 0.00144948 mm^2
                Peak Dynamic Power = 0.0110675 W
                Subthreshold Leakage Power = 0.00253168 W
                Gate Leakage Power = 8.15593e-05 W
                Runtime Dynamic Power = 0.00669672 W
                Runtime Dynamic Energy = 0.00713563 J
                Total Runtime Energy = 0.00992015 J

          Load/Store Unit:
            Area = 1.11574 mm^2
            Peak Dynamic Power = 0.0490235 W
            Subthreshold Leakage Power = 0.076641 W
            Gate Leakage Power = 0.00186238 W
            Runtime Dynamic Power = 0.00941894 W
            Runtime Dynamic Energy = 0.0100363 J
            Total Runtime Energy = 0.0936849 J

              Data Cache:
                Area = 1.06646 mm^2
                Peak Dynamic Power = 0.0345629 W
                Subthreshold Leakage Power = 0.0723979 W
                Gate Leakage Power = 0.00168831 W
                Runtime Dynamic Power = 0.0066427 W
                Runtime Dynamic Energy = 0.00707808 J
                Total Runtime Energy = 0.0860201 J

                  Data and Tag Arrays:
                    Area = 0.259164 mm^2
                    Peak Dynamic Power = 0 W
                    Subthreshold Leakage Power = 0.066312 W
                    Gate Leakage Power = 0.00138196 W
                    Runtime Dynamic Power = 0.00660829 W
                    Runtime Dynamic Energy = 0.00704141 J
                    Total Runtime Energy = 0.0791722 J

                  Miss Buffer:
                    Area = 0.315209 mm^2
                    Peak Dynamic Power = 0.0124784 W
                    Subthreshold Leakage Power = 0.00218421 W
                    Gate Leakage Power = 0.000109941 W
                    Runtime Dynamic Power = 1.4217e-05 W
                    Runtime Dynamic Energy = 1.51488e-05 J
                    Total Runtime Energy = 0.00245967 J

                  Fill Buffer:
                    Area = 0.246043 mm^2
                    Peak Dynamic Power = 0.0110423 W
                    Subthreshold Leakage Power = 0.00195087 W
                    Gate Leakage Power = 9.82028e-05 W
                    Runtime Dynamic Power = 1.24698e-05 W
                    Runtime Dynamic Energy = 1.32871e-05 J
                    Total Runtime Energy = 0.00219666 J

                  Prefetch Buffer:
                    Area = 0.246043 mm^2
                    Peak Dynamic Power = 0.0110423 W
                    Subthreshold Leakage Power = 0.00195087 W
                    Gate Leakage Power = 9.82028e-05 W
                    Runtime Dynamic Power = 7.72389e-06 W
                    Runtime Dynamic Energy = 8.23013e-06 J
                    Total Runtime Energy = 0.0021916 J

              Store Queue:
                Area = 0.0492795 mm^2
                Peak Dynamic Power = 0.0144605 W
                Subthreshold Leakage Power = 0.00424307 W
                Gate Leakage Power = 0.000174072 W
                Runtime Dynamic Power = 0.00277624 W
                Runtime Dynamic Energy = 0.0029582 J
                Total Runtime Energy = 0.00766485 J

          Memory Management Unit:
            Area = 0.0640137 mm^2
            Peak Dynamic Power = 0.020655 W
            Subthreshold Leakage Power = 0.0107524 W
            Gate Leakage Power = 0.00041319 W
            Runtime Dynamic Power = 0.00629719 W
            Runtime Dynamic Energy = 0.00670992 J
            Total Runtime Energy = 0.0186073 J

              Instruction TLB:
                Area = 0.0196043 mm^2
                Peak Dynamic Power = 0.00880588 W
                Subthreshold Leakage Power = 0.00418736 W
                Gate Leakage Power = 0.000171372 W
                Runtime Dynamic Power = 0.00540756 W
                Runtime Dynamic Energy = 0.00576198 J
                Total Runtime Energy = 0.0104064 J

              Data TLB:
                Area = 0.0444093 mm^2
                Peak Dynamic Power = 0.0118492 W
                Subthreshold Leakage Power = 0.00656505 W
                Gate Leakage Power = 0.000241817 W
                Runtime Dynamic Power = 0.000889635 W
                Runtime Dynamic Energy = 0.000947944 J
                Total Runtime Energy = 0.00820095 J

          Execution Unit:
            Area = 2.22898 mm^2
            Peak Dynamic Power = 0.586365 W
            Subthreshold Leakage Power = 0.497274 W
            Gate Leakage Power = 0.0497488 W
            Runtime Dynamic Power = 0.0477473 W
            Runtime Dynamic Energy = 0.0508767 J
            Total Runtime Energy = 0.633753 J

              Int Bypass Data:
                Area = 0.00171352 mm^2
                Peak Dynamic Power = 0 W
                Subthreshold Leakage Power = 0 W
                Gate Leakage Power = 0 W
                Runtime Dynamic Power = 1.65048e-09 W
                Runtime Dynamic Energy = 1.75865e-09 J
                Total Runtime Energy = 1.75865e-09 J

              Int Bypass Tag:
                Area = 0.00021419 mm^2
                Peak Dynamic Power = 0 W
                Subthreshold Leakage Power = 0 W
                Gate Leakage Power = 0 W
                Runtime Dynamic Power = 2.0631e-10 W
                Runtime Dynamic Energy = 2.19832e-10 J
                Total Runtime Energy = 2.19832e-10 J

              Mul Bypass Data:
                Area = 0.00383958 mm^2
                Peak Dynamic Power = 0 W
                Subthreshold Leakage Power = 0 W
                Gate Leakage Power = 0 W
                Runtime Dynamic Power = 5.28332e-10 W
                Runtime Dynamic Energy = 5.6296e-10 J
                Total Runtime Energy = 5.6296e-10 J

              Mul Bypass Tag:
                Area = 0.000319965 mm^2
                Peak Dynamic Power = 0 W
                Subthreshold Leakage Power = 0 W
                Gate Leakage Power = 0 W
                Runtime Dynamic Power = 4.40276e-11 W
                Runtime Dynamic Energy = 4.69133e-11 J
                Total Runtime Energy = 4.69133e-11 J

              FP Bypass Data:
                Area = 0.00547065 mm^2
                Peak Dynamic Power = 0 W
                Subthreshold Leakage Power = 0 W
                Gate Leakage Power = 0 W
                Runtime Dynamic Power = 1.50554e-09 W
                Runtime Dynamic Energy = 1.60421e-09 J
                Total Runtime Energy = 1.60421e-09 J

              FP Bypass Tag:
                Area = 0.00050165 mm^2
                Peak Dynamic Power = 0 W
                Subthreshold Leakage Power = 0 W
                Gate Leakage Power = 0 W
                Runtime Dynamic Power = 1.38056e-10 W
                Runtime Dynamic Energy = 1.47104e-10 J
                Total Runtime Energy = 1.47104e-10 J

              Register File Unit:
                Area = 0.0294128 mm^2
                Peak Dynamic Power = 0.0343622 W
                Subthreshold Leakage Power = 0.00191002 W
                Gate Leakage Power = 5.14853e-05 W
                Runtime Dynamic Power = 6.54479e-10 W
                Runtime Dynamic Energy = 6.97375e-10 J
                Total Runtime Energy = 0.00209007 J

                  Integer Register File:
                    Area = 0.0186223 mm^2
                    Peak Dynamic Power = 0.028914 W
                    Subthreshold Leakage Power = 0.000762251 W
                    Gate Leakage Power = 2.05735e-05 W
                    Runtime Dynamic Power = 5.16867e-10 W
                    Runtime Dynamic Energy = 5.50744e-10 J
                    Total Runtime Energy = 0.000834133 J

                  FP Register File:
                    Area = 0.0107906 mm^2
                    Peak Dynamic Power = 0.00544812 W
                    Subthreshold Leakage Power = 0.00114777 W
                    Gate Leakage Power = 3.09119e-05 W
                    Runtime Dynamic Power = 1.37612e-10 W
                    Runtime Dynamic Energy = 1.46631e-10 J
                    Total Runtime Energy = 0.00125594 J

              Integer ALU(s):
                Area = 0.138846 mm^2
                Peak Dynamic Power = 0.157715 W
                Subthreshold Leakage Power = 0.085206 W
                Gate Leakage Power = 0.00854828 W
                Runtime Dynamic Power = 0.0476992 W
                Runtime Dynamic Energy = 0.0508255 J
                Total Runtime Energy = 0.150725 J

              Floating Point Unit(s):
                Area = 1.8404 mm^2
                Peak Dynamic Power = 0.236573 W
                Subthreshold Leakage Power = 0.282349 W
                Gate Leakage Power = 0.0283266 W
                Runtime Dynamic Power = 4.80944e-05 W
                Runtime Dynamic Energy = 5.12466e-05 J
                Total Runtime Energy = 0.331089 J

              Multiply/Divide Unit(s):
                Area = 0.20827 mm^2
                Peak Dynamic Power = 0.157715 W
                Subthreshold Leakage Power = 0.127809 W
                Gate Leakage Power = 0.0128224 W
                Runtime Dynamic Power = 1.48014e-09 W
                Runtime Dynamic Energy = 1.57715e-09 J
                Total Runtime Energy = 0.149849 J

          Undifferentiated Core:
            Area = 0.528329 mm^2
            Peak Dynamic Power = 0 W
            Subthreshold Leakage Power = 0.16211 W
            Gate Leakage Power = 0.0162637 W
            Runtime Dynamic Power = 0 W
            Runtime Dynamic Energy = 0 J
            Total Runtime Energy = 0.190065 J

          Pipeline?:
            Area = 0.105346 mm^2
            Peak Dynamic Power = 0 W
            Subthreshold Leakage Power = 0.0863787 W
            Gate Leakage Power = 0.00920013 W
            Runtime Dynamic Power = 0.183322 W
            Runtime Dynamic Energy = 0.195337 J
            Total Runtime Energy = 0.297181 J

      L2 Cache:
        Area = 2.37413 mm^2
        Peak Dynamic Power = 0.0345629 W
        Subthreshold Leakage Power = 0.575086 W
        Gate Leakage Power = 0.016576 W
        Runtime Dynamic Power = 0.00787696 W
        Runtime Dynamic Energy = 0.00839324 J
        Total Runtime Energy = 0.638834 J

          Data and Tag Arrays:
            Area = 1.56684 mm^2
            Peak Dynamic Power = 0 W
            Subthreshold Leakage Power = 0.569 W
            Gate Leakage Power = 0.0162696 W
            Runtime Dynamic Power = 0.00766381 W
            Runtime Dynamic Energy = 0.00816612 J
            Total Runtime Energy = 0.631796 J

          Miss Buffer:
            Area = 0.315209 mm^2
            Peak Dynamic Power = 0.0124784 W
            Subthreshold Leakage Power = 0.00218421 W
            Gate Leakage Power = 0.000109941 W
            Runtime Dynamic Power = 8.62509e-05 W
            Runtime Dynamic Energy = 9.1904e-05 J
            Total Runtime Energy = 0.00253642 J

          Fill Buffer:
            Area = 0.246043 mm^2
            Peak Dynamic Power = 0.0110423 W
            Subthreshold Leakage Power = 0.00195087 W
            Gate Leakage Power = 9.82028e-05 W
            Runtime Dynamic Power = 7.56514e-05 W
            Runtime Dynamic Energy = 8.06097e-05 J
            Total Runtime Energy = 0.00226398 J

          Prefetch Buffer:
            Area = 0.246043 mm^2
            Peak Dynamic Power = 0.0110423 W
            Subthreshold Leakage Power = 0.00195087 W
            Gate Leakage Power = 9.82028e-05 W
            Runtime Dynamic Power = 5.12483e-05 W
            Runtime Dynamic Energy = 5.46072e-05 J
            Total Runtime Energy = 0.00223798 J

