gem5 Simulator System.  http://gem5.org
gem5 is copyrighted software; use the --copyright option for details.

gem5 compiled Feb 28 2014 18:29:12
gem5 started Feb 28 2014 18:30:27
gem5 executing on cz310588hp
command line: build/NULL/gem5.opt -d build/NULL/tests/opt/quick/se/50.memtest/null/none/memtest-filter -re tests/run.py build/NULL/tests/opt/quick/se/50.memtest/null/none/memtest-filter
Global frequency set at 1000000000000 ticks per second
info: Entering event queue @ 0.  Starting simulation...
Exiting @ tick 1466014000 because maximum number of loads reached
