
---------- Begin Simulation Statistics ----------
sim_seconds                                  0.000520                       # Number of seconds simulated
sim_ticks                                   519755500                       # Number of ticks simulated
final_tick                                  519755500                       # Number of ticks from beginning of simulation (restored from checkpoints and never reset)
sim_freq                                 1000000000000                       # Frequency of simulated ticks
host_tick_rate                               97602781                       # Simulator tick rate (ticks/s)
host_mem_usage                                 236356                       # Number of bytes of host memory used
host_seconds                                     5.33                       # Real time elapsed on the host
system.voltage_domain.voltage                       1                       # Voltage in Volts
system.clk_domain.clock                          1000                       # Clock period in ticks
system.physmem.pwrStateResidencyTicks::UNDEFINED    519755500                       # Cumulative time (in ticks) in various power states
system.physmem.bytes_read::cpu0                252685                       # Number of bytes read from this memory
system.physmem.bytes_read::cpu1                258147                       # Number of bytes read from this memory
system.physmem.bytes_read::cpu2                248443                       # Number of bytes read from this memory
system.physmem.bytes_read::cpu3                257431                       # Number of bytes read from this memory
system.physmem.bytes_read::cpu4                256206                       # Number of bytes read from this memory
system.physmem.bytes_read::cpu5                249786                       # Number of bytes read from this memory
system.physmem.bytes_read::cpu6                257817                       # Number of bytes read from this memory
system.physmem.bytes_read::cpu7                255503                       # Number of bytes read from this memory
system.physmem.bytes_read::total              2036018                       # Number of bytes read from this memory
system.physmem.bytes_written::writebacks      1421696                       # Number of bytes written to this memory
system.physmem.bytes_written::cpu0               5545                       # Number of bytes written to this memory
system.physmem.bytes_written::cpu1               5403                       # Number of bytes written to this memory
system.physmem.bytes_written::cpu2               5468                       # Number of bytes written to this memory
system.physmem.bytes_written::cpu3               5504                       # Number of bytes written to this memory
system.physmem.bytes_written::cpu4               5430                       # Number of bytes written to this memory
system.physmem.bytes_written::cpu5               5362                       # Number of bytes written to this memory
system.physmem.bytes_written::cpu6               5562                       # Number of bytes written to this memory
system.physmem.bytes_written::cpu7               5554                       # Number of bytes written to this memory
system.physmem.bytes_written::total           1465524                       # Number of bytes written to this memory
system.physmem.num_reads::cpu0                  13663                       # Number of read requests responded to by this memory
system.physmem.num_reads::cpu1                  13833                       # Number of read requests responded to by this memory
system.physmem.num_reads::cpu2                  13579                       # Number of read requests responded to by this memory
system.physmem.num_reads::cpu3                  13621                       # Number of read requests responded to by this memory
system.physmem.num_reads::cpu4                  13782                       # Number of read requests responded to by this memory
system.physmem.num_reads::cpu5                  13599                       # Number of read requests responded to by this memory
system.physmem.num_reads::cpu6                  13692                       # Number of read requests responded to by this memory
system.physmem.num_reads::cpu7                  13646                       # Number of read requests responded to by this memory
system.physmem.num_reads::total                109415                       # Number of read requests responded to by this memory
system.physmem.num_writes::writebacks           22214                       # Number of write requests responded to by this memory
system.physmem.num_writes::cpu0                  5545                       # Number of write requests responded to by this memory
system.physmem.num_writes::cpu1                  5403                       # Number of write requests responded to by this memory
system.physmem.num_writes::cpu2                  5468                       # Number of write requests responded to by this memory
system.physmem.num_writes::cpu3                  5504                       # Number of write requests responded to by this memory
system.physmem.num_writes::cpu4                  5430                       # Number of write requests responded to by this memory
system.physmem.num_writes::cpu5                  5362                       # Number of write requests responded to by this memory
system.physmem.num_writes::cpu6                  5562                       # Number of write requests responded to by this memory
system.physmem.num_writes::cpu7                  5554                       # Number of write requests responded to by this memory
system.physmem.num_writes::total                66042                       # Number of write requests responded to by this memory
system.physmem.bw_read::cpu0                486161282                       # Total read bandwidth from this memory (bytes/s)
system.physmem.bw_read::cpu1                496670069                       # Total read bandwidth from this memory (bytes/s)
system.physmem.bw_read::cpu2                477999752                       # Total read bandwidth from this memory (bytes/s)
system.physmem.bw_read::cpu3                495292498                       # Total read bandwidth from this memory (bytes/s)
system.physmem.bw_read::cpu4                492935621                       # Total read bandwidth from this memory (bytes/s)
system.physmem.bw_read::cpu5                480583659                       # Total read bandwidth from this memory (bytes/s)
system.physmem.bw_read::cpu6                496035155                       # Total read bandwidth from this memory (bytes/s)
system.physmem.bw_read::cpu7                491583062                       # Total read bandwidth from this memory (bytes/s)
system.physmem.bw_read::total              3917261097                       # Total read bandwidth from this memory (bytes/s)
system.physmem.bw_write::writebacks        2735316894                       # Write bandwidth from this memory (bytes/s)
system.physmem.bw_write::cpu0                10668478                       # Write bandwidth from this memory (bytes/s)
system.physmem.bw_write::cpu1                10395272                       # Write bandwidth from this memory (bytes/s)
system.physmem.bw_write::cpu2                10520331                       # Write bandwidth from this memory (bytes/s)
system.physmem.bw_write::cpu3                10589595                       # Write bandwidth from this memory (bytes/s)
system.physmem.bw_write::cpu4                10447220                       # Write bandwidth from this memory (bytes/s)
system.physmem.bw_write::cpu5                10316389                       # Write bandwidth from this memory (bytes/s)
system.physmem.bw_write::cpu6                10701185                       # Write bandwidth from this memory (bytes/s)
system.physmem.bw_write::cpu7                10685794                       # Write bandwidth from this memory (bytes/s)
system.physmem.bw_write::total             2819641158                       # Write bandwidth from this memory (bytes/s)
system.physmem.bw_total::writebacks        2735316894                       # Total bandwidth to/from this memory (bytes/s)
system.physmem.bw_total::cpu0               496829759                       # Total bandwidth to/from this memory (bytes/s)
system.physmem.bw_total::cpu1               507065341                       # Total bandwidth to/from this memory (bytes/s)
system.physmem.bw_total::cpu2               488520083                       # Total bandwidth to/from this memory (bytes/s)
system.physmem.bw_total::cpu3               505882093                       # Total bandwidth to/from this memory (bytes/s)
system.physmem.bw_total::cpu4               503382841                       # Total bandwidth to/from this memory (bytes/s)
system.physmem.bw_total::cpu5               490900048                       # Total bandwidth to/from this memory (bytes/s)
system.physmem.bw_total::cpu6               506736340                       # Total bandwidth to/from this memory (bytes/s)
system.physmem.bw_total::cpu7               502268855                       # Total bandwidth to/from this memory (bytes/s)
system.physmem.bw_total::total             6736902255                       # Total bandwidth to/from this memory (bytes/s)
system.pwrStateResidencyTicks::UNDEFINED    519755500                       # Cumulative time (in ticks) in various power states
system.cpu_clk_domain.clock                       500                       # Clock period in ticks
system.cpu0.pwrStateResidencyTicks::UNDEFINED    519755500                       # Cumulative time (in ticks) in various power states
system.cpu0.num_reads                           99523                       # number of read accesses completed
system.cpu0.num_writes                          55175                       # number of write accesses completed
system.cpu0.l1c.tags.pwrStateResidencyTicks::UNDEFINED    519755500                       # Cumulative time (in ticks) in various power states
system.cpu0.l1c.tags.replacements               22190                       # number of replacements
system.cpu0.l1c.tags.tagsinuse             391.732266                       # Cycle average of tags in use
system.cpu0.l1c.tags.total_refs                 13637                       # Total number of references to valid blocks.
system.cpu0.l1c.tags.sampled_refs               22577                       # Sample count of references to valid blocks.
system.cpu0.l1c.tags.avg_refs                0.604022                       # Average number of references to valid blocks.
system.cpu0.l1c.tags.warmup_cycle                   0                       # Cycle when the warmup percentage was hit.
system.cpu0.l1c.tags.occ_blocks::cpu0      391.732266                       # Average occupied blocks per requestor
system.cpu0.l1c.tags.occ_percent::cpu0       0.765102                       # Average percentage of cache occupancy
system.cpu0.l1c.tags.occ_percent::total      0.765102                       # Average percentage of cache occupancy
system.cpu0.l1c.tags.occ_task_id_blocks::1024          387                       # Occupied blocks per task id
system.cpu0.l1c.tags.age_task_id_blocks_1024::0          377                       # Occupied blocks per task id
system.cpu0.l1c.tags.age_task_id_blocks_1024::1           10                       # Occupied blocks per task id
system.cpu0.l1c.tags.occ_task_id_percent::1024     0.755859                       # Percentage of cache occupancy per task id
system.cpu0.l1c.tags.tag_accesses              338094                       # Number of tag accesses
system.cpu0.l1c.tags.data_accesses             338094                       # Number of data accesses
system.cpu0.l1c.pwrStateResidencyTicks::UNDEFINED    519755500                       # Cumulative time (in ticks) in various power states
system.cpu0.l1c.ReadReq_hits::cpu0               8745                       # number of ReadReq hits
system.cpu0.l1c.ReadReq_hits::total              8745                       # number of ReadReq hits
system.cpu0.l1c.WriteReq_hits::cpu0              1203                       # number of WriteReq hits
system.cpu0.l1c.WriteReq_hits::total             1203                       # number of WriteReq hits
system.cpu0.l1c.demand_hits::cpu0                9948                       # number of demand (read+write) hits
system.cpu0.l1c.demand_hits::total               9948                       # number of demand (read+write) hits
system.cpu0.l1c.overall_hits::cpu0               9948                       # number of overall hits
system.cpu0.l1c.overall_hits::total              9948                       # number of overall hits
system.cpu0.l1c.ReadReq_misses::cpu0            36338                       # number of ReadReq misses
system.cpu0.l1c.ReadReq_misses::total           36338                       # number of ReadReq misses
system.cpu0.l1c.WriteReq_misses::cpu0           24073                       # number of WriteReq misses
system.cpu0.l1c.WriteReq_misses::total          24073                       # number of WriteReq misses
system.cpu0.l1c.demand_misses::cpu0             60411                       # number of demand (read+write) misses
system.cpu0.l1c.demand_misses::total            60411                       # number of demand (read+write) misses
system.cpu0.l1c.overall_misses::cpu0            60411                       # number of overall misses
system.cpu0.l1c.overall_misses::total           60411                       # number of overall misses
system.cpu0.l1c.ReadReq_miss_latency::cpu0    720327390                       # number of ReadReq miss cycles
system.cpu0.l1c.ReadReq_miss_latency::total    720327390                       # number of ReadReq miss cycles
system.cpu0.l1c.WriteReq_miss_latency::cpu0    585363499                       # number of WriteReq miss cycles
system.cpu0.l1c.WriteReq_miss_latency::total    585363499                       # number of WriteReq miss cycles
system.cpu0.l1c.demand_miss_latency::cpu0   1305690889                       # number of demand (read+write) miss cycles
system.cpu0.l1c.demand_miss_latency::total   1305690889                       # number of demand (read+write) miss cycles
system.cpu0.l1c.overall_miss_latency::cpu0   1305690889                       # number of overall miss cycles
system.cpu0.l1c.overall_miss_latency::total   1305690889                       # number of overall miss cycles
system.cpu0.l1c.ReadReq_accesses::cpu0          45083                       # number of ReadReq accesses(hits+misses)
system.cpu0.l1c.ReadReq_accesses::total         45083                       # number of ReadReq accesses(hits+misses)
system.cpu0.l1c.WriteReq_accesses::cpu0         25276                       # number of WriteReq accesses(hits+misses)
system.cpu0.l1c.WriteReq_accesses::total        25276                       # number of WriteReq accesses(hits+misses)
system.cpu0.l1c.demand_accesses::cpu0           70359                       # number of demand (read+write) accesses
system.cpu0.l1c.demand_accesses::total          70359                       # number of demand (read+write) accesses
system.cpu0.l1c.overall_accesses::cpu0          70359                       # number of overall (read+write) accesses
system.cpu0.l1c.overall_accesses::total         70359                       # number of overall (read+write) accesses
system.cpu0.l1c.ReadReq_miss_rate::cpu0      0.806024                       # miss rate for ReadReq accesses
system.cpu0.l1c.ReadReq_miss_rate::total     0.806024                       # miss rate for ReadReq accesses
system.cpu0.l1c.WriteReq_miss_rate::cpu0     0.952405                       # miss rate for WriteReq accesses
system.cpu0.l1c.WriteReq_miss_rate::total     0.952405                       # miss rate for WriteReq accesses
system.cpu0.l1c.demand_miss_rate::cpu0       0.858611                       # miss rate for demand accesses
system.cpu0.l1c.demand_miss_rate::total      0.858611                       # miss rate for demand accesses
system.cpu0.l1c.overall_miss_rate::cpu0      0.858611                       # miss rate for overall accesses
system.cpu0.l1c.overall_miss_rate::total     0.858611                       # miss rate for overall accesses
system.cpu0.l1c.ReadReq_avg_miss_latency::cpu0 19822.978425                       # average ReadReq miss latency
system.cpu0.l1c.ReadReq_avg_miss_latency::total 19822.978425                       # average ReadReq miss latency
system.cpu0.l1c.WriteReq_avg_miss_latency::cpu0 24316.184065                       # average WriteReq miss latency
system.cpu0.l1c.WriteReq_avg_miss_latency::total 24316.184065                       # average WriteReq miss latency
system.cpu0.l1c.demand_avg_miss_latency::cpu0 21613.462598                       # average overall miss latency
system.cpu0.l1c.demand_avg_miss_latency::total 21613.462598                       # average overall miss latency
system.cpu0.l1c.overall_avg_miss_latency::cpu0 21613.462598                       # average overall miss latency
system.cpu0.l1c.overall_avg_miss_latency::total 21613.462598                       # average overall miss latency
system.cpu0.l1c.blocked_cycles::no_mshrs       881814                       # number of cycles access was blocked
system.cpu0.l1c.blocked_cycles::no_targets            0                       # number of cycles access was blocked
system.cpu0.l1c.blocked::no_mshrs               67116                       # number of cycles access was blocked
system.cpu0.l1c.blocked::no_targets                 0                       # number of cycles access was blocked
system.cpu0.l1c.avg_blocked_cycles::no_mshrs    13.138655                       # average number of cycles each access was blocked
system.cpu0.l1c.avg_blocked_cycles::no_targets          nan                       # average number of cycles each access was blocked
system.cpu0.l1c.writebacks::writebacks           9797                       # number of writebacks
system.cpu0.l1c.writebacks::total                9797                       # number of writebacks
system.cpu0.l1c.ReadReq_mshr_misses::cpu0        36338                       # number of ReadReq MSHR misses
system.cpu0.l1c.ReadReq_mshr_misses::total        36338                       # number of ReadReq MSHR misses
system.cpu0.l1c.WriteReq_mshr_misses::cpu0        24073                       # number of WriteReq MSHR misses
system.cpu0.l1c.WriteReq_mshr_misses::total        24073                       # number of WriteReq MSHR misses
system.cpu0.l1c.demand_mshr_misses::cpu0        60411                       # number of demand (read+write) MSHR misses
system.cpu0.l1c.demand_mshr_misses::total        60411                       # number of demand (read+write) MSHR misses
system.cpu0.l1c.overall_mshr_misses::cpu0        60411                       # number of overall MSHR misses
system.cpu0.l1c.overall_mshr_misses::total        60411                       # number of overall MSHR misses
system.cpu0.l1c.ReadReq_mshr_uncacheable::cpu0         9869                       # number of ReadReq MSHR uncacheable
system.cpu0.l1c.ReadReq_mshr_uncacheable::total         9869                       # number of ReadReq MSHR uncacheable
system.cpu0.l1c.WriteReq_mshr_uncacheable::cpu0         5547                       # number of WriteReq MSHR uncacheable
system.cpu0.l1c.WriteReq_mshr_uncacheable::total         5547                       # number of WriteReq MSHR uncacheable
system.cpu0.l1c.overall_mshr_uncacheable_misses::cpu0        15416                       # number of overall MSHR uncacheable misses
system.cpu0.l1c.overall_mshr_uncacheable_misses::total        15416                       # number of overall MSHR uncacheable misses
system.cpu0.l1c.ReadReq_mshr_miss_latency::cpu0    683989390                       # number of ReadReq MSHR miss cycles
system.cpu0.l1c.ReadReq_mshr_miss_latency::total    683989390                       # number of ReadReq MSHR miss cycles
system.cpu0.l1c.WriteReq_mshr_miss_latency::cpu0    561290499                       # number of WriteReq MSHR miss cycles
system.cpu0.l1c.WriteReq_mshr_miss_latency::total    561290499                       # number of WriteReq MSHR miss cycles
system.cpu0.l1c.demand_mshr_miss_latency::cpu0   1245279889                       # number of demand (read+write) MSHR miss cycles
system.cpu0.l1c.demand_mshr_miss_latency::total   1245279889                       # number of demand (read+write) MSHR miss cycles
system.cpu0.l1c.overall_mshr_miss_latency::cpu0   1245279889                       # number of overall MSHR miss cycles
system.cpu0.l1c.overall_mshr_miss_latency::total   1245279889                       # number of overall MSHR miss cycles
system.cpu0.l1c.ReadReq_mshr_uncacheable_latency::cpu0    771084187                       # number of ReadReq MSHR uncacheable cycles
system.cpu0.l1c.ReadReq_mshr_uncacheable_latency::total    771084187                       # number of ReadReq MSHR uncacheable cycles
system.cpu0.l1c.overall_mshr_uncacheable_latency::cpu0    771084187                       # number of overall MSHR uncacheable cycles
system.cpu0.l1c.overall_mshr_uncacheable_latency::total    771084187                       # number of overall MSHR uncacheable cycles
system.cpu0.l1c.ReadReq_mshr_miss_rate::cpu0     0.806024                       # mshr miss rate for ReadReq accesses
system.cpu0.l1c.ReadReq_mshr_miss_rate::total     0.806024                       # mshr miss rate for ReadReq accesses
system.cpu0.l1c.WriteReq_mshr_miss_rate::cpu0     0.952405                       # mshr miss rate for WriteReq accesses
system.cpu0.l1c.WriteReq_mshr_miss_rate::total     0.952405                       # mshr miss rate for WriteReq accesses
system.cpu0.l1c.demand_mshr_miss_rate::cpu0     0.858611                       # mshr miss rate for demand accesses
system.cpu0.l1c.demand_mshr_miss_rate::total     0.858611                       # mshr miss rate for demand accesses
system.cpu0.l1c.overall_mshr_miss_rate::cpu0     0.858611                       # mshr miss rate for overall accesses
system.cpu0.l1c.overall_mshr_miss_rate::total     0.858611                       # mshr miss rate for overall accesses
system.cpu0.l1c.ReadReq_avg_mshr_miss_latency::cpu0 18822.978425                       # average ReadReq mshr miss latency
system.cpu0.l1c.ReadReq_avg_mshr_miss_latency::total 18822.978425                       # average ReadReq mshr miss latency
system.cpu0.l1c.WriteReq_avg_mshr_miss_latency::cpu0 23316.184065                       # average WriteReq mshr miss latency
system.cpu0.l1c.WriteReq_avg_mshr_miss_latency::total 23316.184065                       # average WriteReq mshr miss latency
system.cpu0.l1c.demand_avg_mshr_miss_latency::cpu0 20613.462598                       # average overall mshr miss latency
system.cpu0.l1c.demand_avg_mshr_miss_latency::total 20613.462598                       # average overall mshr miss latency
system.cpu0.l1c.overall_avg_mshr_miss_latency::cpu0 20613.462598                       # average overall mshr miss latency
system.cpu0.l1c.overall_avg_mshr_miss_latency::total 20613.462598                       # average overall mshr miss latency
system.cpu0.l1c.ReadReq_avg_mshr_uncacheable_latency::cpu0 78131.947208                       # average ReadReq mshr uncacheable latency
system.cpu0.l1c.ReadReq_avg_mshr_uncacheable_latency::total 78131.947208                       # average ReadReq mshr uncacheable latency
system.cpu0.l1c.overall_avg_mshr_uncacheable_latency::cpu0 50018.434549                       # average overall mshr uncacheable latency
system.cpu0.l1c.overall_avg_mshr_uncacheable_latency::total 50018.434549                       # average overall mshr uncacheable latency
system.cpu1.pwrStateResidencyTicks::UNDEFINED    519755500                       # Cumulative time (in ticks) in various power states
system.cpu1.num_reads                           99560                       # number of read accesses completed
system.cpu1.num_writes                          54738                       # number of write accesses completed
system.cpu1.l1c.tags.pwrStateResidencyTicks::UNDEFINED    519755500                       # Cumulative time (in ticks) in various power states
system.cpu1.l1c.tags.replacements               22160                       # number of replacements
system.cpu1.l1c.tags.tagsinuse             392.166928                       # Cycle average of tags in use
system.cpu1.l1c.tags.total_refs                 13521                       # Total number of references to valid blocks.
system.cpu1.l1c.tags.sampled_refs               22561                       # Sample count of references to valid blocks.
system.cpu1.l1c.tags.avg_refs                0.599309                       # Average number of references to valid blocks.
system.cpu1.l1c.tags.warmup_cycle                   0                       # Cycle when the warmup percentage was hit.
system.cpu1.l1c.tags.occ_blocks::cpu1      392.166928                       # Average occupied blocks per requestor
system.cpu1.l1c.tags.occ_percent::cpu1       0.765951                       # Average percentage of cache occupancy
system.cpu1.l1c.tags.occ_percent::total      0.765951                       # Average percentage of cache occupancy
system.cpu1.l1c.tags.occ_task_id_blocks::1024          401                       # Occupied blocks per task id
system.cpu1.l1c.tags.age_task_id_blocks_1024::0          386                       # Occupied blocks per task id
system.cpu1.l1c.tags.age_task_id_blocks_1024::1           15                       # Occupied blocks per task id
system.cpu1.l1c.tags.occ_task_id_percent::1024     0.783203                       # Percentage of cache occupancy per task id
system.cpu1.l1c.tags.tag_accesses              337076                       # Number of tag accesses
system.cpu1.l1c.tags.data_accesses             337076                       # Number of data accesses
system.cpu1.l1c.pwrStateResidencyTicks::UNDEFINED    519755500                       # Cumulative time (in ticks) in various power states
system.cpu1.l1c.ReadReq_hits::cpu1               8807                       # number of ReadReq hits
system.cpu1.l1c.ReadReq_hits::total              8807                       # number of ReadReq hits
system.cpu1.l1c.WriteReq_hits::cpu1              1218                       # number of WriteReq hits
system.cpu1.l1c.WriteReq_hits::total             1218                       # number of WriteReq hits
system.cpu1.l1c.demand_hits::cpu1               10025                       # number of demand (read+write) hits
system.cpu1.l1c.demand_hits::total              10025                       # number of demand (read+write) hits
system.cpu1.l1c.overall_hits::cpu1              10025                       # number of overall hits
system.cpu1.l1c.overall_hits::total             10025                       # number of overall hits
system.cpu1.l1c.ReadReq_misses::cpu1            36399                       # number of ReadReq misses
system.cpu1.l1c.ReadReq_misses::total           36399                       # number of ReadReq misses
system.cpu1.l1c.WriteReq_misses::cpu1           23708                       # number of WriteReq misses
system.cpu1.l1c.WriteReq_misses::total          23708                       # number of WriteReq misses
system.cpu1.l1c.demand_misses::cpu1             60107                       # number of demand (read+write) misses
system.cpu1.l1c.demand_misses::total            60107                       # number of demand (read+write) misses
system.cpu1.l1c.overall_misses::cpu1            60107                       # number of overall misses
system.cpu1.l1c.overall_misses::total           60107                       # number of overall misses
system.cpu1.l1c.ReadReq_miss_latency::cpu1    728138208                       # number of ReadReq miss cycles
system.cpu1.l1c.ReadReq_miss_latency::total    728138208                       # number of ReadReq miss cycles
system.cpu1.l1c.WriteReq_miss_latency::cpu1    572668423                       # number of WriteReq miss cycles
system.cpu1.l1c.WriteReq_miss_latency::total    572668423                       # number of WriteReq miss cycles
system.cpu1.l1c.demand_miss_latency::cpu1   1300806631                       # number of demand (read+write) miss cycles
system.cpu1.l1c.demand_miss_latency::total   1300806631                       # number of demand (read+write) miss cycles
system.cpu1.l1c.overall_miss_latency::cpu1   1300806631                       # number of overall miss cycles
system.cpu1.l1c.overall_miss_latency::total   1300806631                       # number of overall miss cycles
system.cpu1.l1c.ReadReq_accesses::cpu1          45206                       # number of ReadReq accesses(hits+misses)
system.cpu1.l1c.ReadReq_accesses::total         45206                       # number of ReadReq accesses(hits+misses)
system.cpu1.l1c.WriteReq_accesses::cpu1         24926                       # number of WriteReq accesses(hits+misses)
system.cpu1.l1c.WriteReq_accesses::total        24926                       # number of WriteReq accesses(hits+misses)
system.cpu1.l1c.demand_accesses::cpu1           70132                       # number of demand (read+write) accesses
system.cpu1.l1c.demand_accesses::total          70132                       # number of demand (read+write) accesses
system.cpu1.l1c.overall_accesses::cpu1          70132                       # number of overall (read+write) accesses
system.cpu1.l1c.overall_accesses::total         70132                       # number of overall (read+write) accesses
system.cpu1.l1c.ReadReq_miss_rate::cpu1      0.805181                       # miss rate for ReadReq accesses
system.cpu1.l1c.ReadReq_miss_rate::total     0.805181                       # miss rate for ReadReq accesses
system.cpu1.l1c.WriteReq_miss_rate::cpu1     0.951135                       # miss rate for WriteReq accesses
system.cpu1.l1c.WriteReq_miss_rate::total     0.951135                       # miss rate for WriteReq accesses
system.cpu1.l1c.demand_miss_rate::cpu1       0.857055                       # miss rate for demand accesses
system.cpu1.l1c.demand_miss_rate::total      0.857055                       # miss rate for demand accesses
system.cpu1.l1c.overall_miss_rate::cpu1      0.857055                       # miss rate for overall accesses
system.cpu1.l1c.overall_miss_rate::total     0.857055                       # miss rate for overall accesses
system.cpu1.l1c.ReadReq_avg_miss_latency::cpu1 20004.346493                       # average ReadReq miss latency
system.cpu1.l1c.ReadReq_avg_miss_latency::total 20004.346493                       # average ReadReq miss latency
system.cpu1.l1c.WriteReq_avg_miss_latency::cpu1 24155.070989                       # average WriteReq miss latency
system.cpu1.l1c.WriteReq_avg_miss_latency::total 24155.070989                       # average WriteReq miss latency
system.cpu1.l1c.demand_avg_miss_latency::cpu1 21641.516479                       # average overall miss latency
system.cpu1.l1c.demand_avg_miss_latency::total 21641.516479                       # average overall miss latency
system.cpu1.l1c.overall_avg_miss_latency::cpu1 21641.516479                       # average overall miss latency
system.cpu1.l1c.overall_avg_miss_latency::total 21641.516479                       # average overall miss latency
system.cpu1.l1c.blocked_cycles::no_mshrs       883013                       # number of cycles access was blocked
system.cpu1.l1c.blocked_cycles::no_targets            0                       # number of cycles access was blocked
system.cpu1.l1c.blocked::no_mshrs               66936                       # number of cycles access was blocked
system.cpu1.l1c.blocked::no_targets                 0                       # number of cycles access was blocked
system.cpu1.l1c.avg_blocked_cycles::no_mshrs    13.191900                       # average number of cycles each access was blocked
system.cpu1.l1c.avg_blocked_cycles::no_targets          nan                       # average number of cycles each access was blocked
system.cpu1.l1c.writebacks::writebacks           9595                       # number of writebacks
system.cpu1.l1c.writebacks::total                9595                       # number of writebacks
system.cpu1.l1c.ReadReq_mshr_misses::cpu1        36399                       # number of ReadReq MSHR misses
system.cpu1.l1c.ReadReq_mshr_misses::total        36399                       # number of ReadReq MSHR misses
system.cpu1.l1c.WriteReq_mshr_misses::cpu1        23708                       # number of WriteReq MSHR misses
system.cpu1.l1c.WriteReq_mshr_misses::total        23708                       # number of WriteReq MSHR misses
system.cpu1.l1c.demand_mshr_misses::cpu1        60107                       # number of demand (read+write) MSHR misses
system.cpu1.l1c.demand_mshr_misses::total        60107                       # number of demand (read+write) MSHR misses
system.cpu1.l1c.overall_mshr_misses::cpu1        60107                       # number of overall MSHR misses
system.cpu1.l1c.overall_mshr_misses::total        60107                       # number of overall MSHR misses
system.cpu1.l1c.ReadReq_mshr_uncacheable::cpu1         9955                       # number of ReadReq MSHR uncacheable
system.cpu1.l1c.ReadReq_mshr_uncacheable::total         9955                       # number of ReadReq MSHR uncacheable
system.cpu1.l1c.WriteReq_mshr_uncacheable::cpu1         5404                       # number of WriteReq MSHR uncacheable
system.cpu1.l1c.WriteReq_mshr_uncacheable::total         5404                       # number of WriteReq MSHR uncacheable
system.cpu1.l1c.overall_mshr_uncacheable_misses::cpu1        15359                       # number of overall MSHR uncacheable misses
system.cpu1.l1c.overall_mshr_uncacheable_misses::total        15359                       # number of overall MSHR uncacheable misses
system.cpu1.l1c.ReadReq_mshr_miss_latency::cpu1    691742208                       # number of ReadReq MSHR miss cycles
system.cpu1.l1c.ReadReq_mshr_miss_latency::total    691742208                       # number of ReadReq MSHR miss cycles
system.cpu1.l1c.WriteReq_mshr_miss_latency::cpu1    548961423                       # number of WriteReq MSHR miss cycles
system.cpu1.l1c.WriteReq_mshr_miss_latency::total    548961423                       # number of WriteReq MSHR miss cycles
system.cpu1.l1c.demand_mshr_miss_latency::cpu1   1240703631                       # number of demand (read+write) MSHR miss cycles
system.cpu1.l1c.demand_mshr_miss_latency::total   1240703631                       # number of demand (read+write) MSHR miss cycles
system.cpu1.l1c.overall_mshr_miss_latency::cpu1   1240703631                       # number of overall MSHR miss cycles
system.cpu1.l1c.overall_mshr_miss_latency::total   1240703631                       # number of overall MSHR miss cycles
system.cpu1.l1c.ReadReq_mshr_uncacheable_latency::cpu1    776683501                       # number of ReadReq MSHR uncacheable cycles
system.cpu1.l1c.ReadReq_mshr_uncacheable_latency::total    776683501                       # number of ReadReq MSHR uncacheable cycles
system.cpu1.l1c.overall_mshr_uncacheable_latency::cpu1    776683501                       # number of overall MSHR uncacheable cycles
system.cpu1.l1c.overall_mshr_uncacheable_latency::total    776683501                       # number of overall MSHR uncacheable cycles
system.cpu1.l1c.ReadReq_mshr_miss_rate::cpu1     0.805181                       # mshr miss rate for ReadReq accesses
system.cpu1.l1c.ReadReq_mshr_miss_rate::total     0.805181                       # mshr miss rate for ReadReq accesses
system.cpu1.l1c.WriteReq_mshr_miss_rate::cpu1     0.951135                       # mshr miss rate for WriteReq accesses
system.cpu1.l1c.WriteReq_mshr_miss_rate::total     0.951135                       # mshr miss rate for WriteReq accesses
system.cpu1.l1c.demand_mshr_miss_rate::cpu1     0.857055                       # mshr miss rate for demand accesses
system.cpu1.l1c.demand_mshr_miss_rate::total     0.857055                       # mshr miss rate for demand accesses
system.cpu1.l1c.overall_mshr_miss_rate::cpu1     0.857055                       # mshr miss rate for overall accesses
system.cpu1.l1c.overall_mshr_miss_rate::total     0.857055                       # mshr miss rate for overall accesses
system.cpu1.l1c.ReadReq_avg_mshr_miss_latency::cpu1 19004.428913                       # average ReadReq mshr miss latency
system.cpu1.l1c.ReadReq_avg_mshr_miss_latency::total 19004.428913                       # average ReadReq mshr miss latency
system.cpu1.l1c.WriteReq_avg_mshr_miss_latency::cpu1 23155.113169                       # average WriteReq mshr miss latency
system.cpu1.l1c.WriteReq_avg_mshr_miss_latency::total 23155.113169                       # average WriteReq mshr miss latency
system.cpu1.l1c.demand_avg_mshr_miss_latency::cpu1 20641.583027                       # average overall mshr miss latency
system.cpu1.l1c.demand_avg_mshr_miss_latency::total 20641.583027                       # average overall mshr miss latency
system.cpu1.l1c.overall_avg_mshr_miss_latency::cpu1 20641.583027                       # average overall mshr miss latency
system.cpu1.l1c.overall_avg_mshr_miss_latency::total 20641.583027                       # average overall mshr miss latency
system.cpu1.l1c.ReadReq_avg_mshr_uncacheable_latency::cpu1 78019.437569                       # average ReadReq mshr uncacheable latency
system.cpu1.l1c.ReadReq_avg_mshr_uncacheable_latency::total 78019.437569                       # average ReadReq mshr uncacheable latency
system.cpu1.l1c.overall_avg_mshr_uncacheable_latency::cpu1 50568.624325                       # average overall mshr uncacheable latency
system.cpu1.l1c.overall_avg_mshr_uncacheable_latency::total 50568.624325                       # average overall mshr uncacheable latency
system.cpu2.pwrStateResidencyTicks::UNDEFINED    519755500                       # Cumulative time (in ticks) in various power states
system.cpu2.num_reads                           98983                       # number of read accesses completed
system.cpu2.num_writes                          55204                       # number of write accesses completed
system.cpu2.l1c.tags.pwrStateResidencyTicks::UNDEFINED    519755500                       # Cumulative time (in ticks) in various power states
system.cpu2.l1c.tags.replacements               22113                       # number of replacements
system.cpu2.l1c.tags.tagsinuse             391.892697                       # Cycle average of tags in use
system.cpu2.l1c.tags.total_refs                 13532                       # Total number of references to valid blocks.
system.cpu2.l1c.tags.sampled_refs               22515                       # Sample count of references to valid blocks.
system.cpu2.l1c.tags.avg_refs                0.601022                       # Average number of references to valid blocks.
system.cpu2.l1c.tags.warmup_cycle                   0                       # Cycle when the warmup percentage was hit.
system.cpu2.l1c.tags.occ_blocks::cpu2      391.892697                       # Average occupied blocks per requestor
system.cpu2.l1c.tags.occ_percent::cpu2       0.765415                       # Average percentage of cache occupancy
system.cpu2.l1c.tags.occ_percent::total      0.765415                       # Average percentage of cache occupancy
system.cpu2.l1c.tags.occ_task_id_blocks::1024          402                       # Occupied blocks per task id
system.cpu2.l1c.tags.age_task_id_blocks_1024::0          395                       # Occupied blocks per task id
system.cpu2.l1c.tags.age_task_id_blocks_1024::1            7                       # Occupied blocks per task id
system.cpu2.l1c.tags.occ_task_id_percent::1024     0.785156                       # Percentage of cache occupancy per task id
system.cpu2.l1c.tags.tag_accesses              337818                       # Number of tag accesses
system.cpu2.l1c.tags.data_accesses             337818                       # Number of data accesses
system.cpu2.l1c.pwrStateResidencyTicks::UNDEFINED    519755500                       # Cumulative time (in ticks) in various power states
system.cpu2.l1c.ReadReq_hits::cpu2               8790                       # number of ReadReq hits
system.cpu2.l1c.ReadReq_hits::total              8790                       # number of ReadReq hits
system.cpu2.l1c.WriteReq_hits::cpu2              1144                       # number of WriteReq hits
system.cpu2.l1c.WriteReq_hits::total             1144                       # number of WriteReq hits
system.cpu2.l1c.demand_hits::cpu2                9934                       # number of demand (read+write) hits
system.cpu2.l1c.demand_hits::total               9934                       # number of demand (read+write) hits
system.cpu2.l1c.overall_hits::cpu2               9934                       # number of overall hits
system.cpu2.l1c.overall_hits::total              9934                       # number of overall hits
system.cpu2.l1c.ReadReq_misses::cpu2            36176                       # number of ReadReq misses
system.cpu2.l1c.ReadReq_misses::total           36176                       # number of ReadReq misses
system.cpu2.l1c.WriteReq_misses::cpu2           24169                       # number of WriteReq misses
system.cpu2.l1c.WriteReq_misses::total          24169                       # number of WriteReq misses
system.cpu2.l1c.demand_misses::cpu2             60345                       # number of demand (read+write) misses
system.cpu2.l1c.demand_misses::total            60345                       # number of demand (read+write) misses
system.cpu2.l1c.overall_misses::cpu2            60345                       # number of overall misses
system.cpu2.l1c.overall_misses::total           60345                       # number of overall misses
system.cpu2.l1c.ReadReq_miss_latency::cpu2    716181593                       # number of ReadReq miss cycles
system.cpu2.l1c.ReadReq_miss_latency::total    716181593                       # number of ReadReq miss cycles
system.cpu2.l1c.WriteReq_miss_latency::cpu2    589266088                       # number of WriteReq miss cycles
system.cpu2.l1c.WriteReq_miss_latency::total    589266088                       # number of WriteReq miss cycles
system.cpu2.l1c.demand_miss_latency::cpu2   1305447681                       # number of demand (read+write) miss cycles
system.cpu2.l1c.demand_miss_latency::total   1305447681                       # number of demand (read+write) miss cycles
system.cpu2.l1c.overall_miss_latency::cpu2   1305447681                       # number of overall miss cycles
system.cpu2.l1c.overall_miss_latency::total   1305447681                       # number of overall miss cycles
system.cpu2.l1c.ReadReq_accesses::cpu2          44966                       # number of ReadReq accesses(hits+misses)
system.cpu2.l1c.ReadReq_accesses::total         44966                       # number of ReadReq accesses(hits+misses)
system.cpu2.l1c.WriteReq_accesses::cpu2         25313                       # number of WriteReq accesses(hits+misses)
system.cpu2.l1c.WriteReq_accesses::total        25313                       # number of WriteReq accesses(hits+misses)
system.cpu2.l1c.demand_accesses::cpu2           70279                       # number of demand (read+write) accesses
system.cpu2.l1c.demand_accesses::total          70279                       # number of demand (read+write) accesses
system.cpu2.l1c.overall_accesses::cpu2          70279                       # number of overall (read+write) accesses
system.cpu2.l1c.overall_accesses::total         70279                       # number of overall (read+write) accesses
system.cpu2.l1c.ReadReq_miss_rate::cpu2      0.804519                       # miss rate for ReadReq accesses
system.cpu2.l1c.ReadReq_miss_rate::total     0.804519                       # miss rate for ReadReq accesses
system.cpu2.l1c.WriteReq_miss_rate::cpu2     0.954806                       # miss rate for WriteReq accesses
system.cpu2.l1c.WriteReq_miss_rate::total     0.954806                       # miss rate for WriteReq accesses
system.cpu2.l1c.demand_miss_rate::cpu2       0.858649                       # miss rate for demand accesses
system.cpu2.l1c.demand_miss_rate::total      0.858649                       # miss rate for demand accesses
system.cpu2.l1c.overall_miss_rate::cpu2      0.858649                       # miss rate for overall accesses
system.cpu2.l1c.overall_miss_rate::total     0.858649                       # miss rate for overall accesses
system.cpu2.l1c.ReadReq_avg_miss_latency::cpu2 19797.147086                       # average ReadReq miss latency
system.cpu2.l1c.ReadReq_avg_miss_latency::total 19797.147086                       # average ReadReq miss latency
system.cpu2.l1c.WriteReq_avg_miss_latency::cpu2 24381.070297                       # average WriteReq miss latency
system.cpu2.l1c.WriteReq_avg_miss_latency::total 24381.070297                       # average WriteReq miss latency
system.cpu2.l1c.demand_avg_miss_latency::cpu2 21633.071191                       # average overall miss latency
system.cpu2.l1c.demand_avg_miss_latency::total 21633.071191                       # average overall miss latency
system.cpu2.l1c.overall_avg_miss_latency::cpu2 21633.071191                       # average overall miss latency
system.cpu2.l1c.overall_avg_miss_latency::total 21633.071191                       # average overall miss latency
system.cpu2.l1c.blocked_cycles::no_mshrs       879879                       # number of cycles access was blocked
system.cpu2.l1c.blocked_cycles::no_targets            0                       # number of cycles access was blocked
system.cpu2.l1c.blocked::no_mshrs               66865                       # number of cycles access was blocked
system.cpu2.l1c.blocked::no_targets                 0                       # number of cycles access was blocked
system.cpu2.l1c.avg_blocked_cycles::no_mshrs    13.159037                       # average number of cycles each access was blocked
system.cpu2.l1c.avg_blocked_cycles::no_targets          nan                       # average number of cycles each access was blocked
system.cpu2.l1c.writebacks::writebacks           9745                       # number of writebacks
system.cpu2.l1c.writebacks::total                9745                       # number of writebacks
system.cpu2.l1c.ReadReq_mshr_misses::cpu2        36176                       # number of ReadReq MSHR misses
system.cpu2.l1c.ReadReq_mshr_misses::total        36176                       # number of ReadReq MSHR misses
system.cpu2.l1c.WriteReq_mshr_misses::cpu2        24169                       # number of WriteReq MSHR misses
system.cpu2.l1c.WriteReq_mshr_misses::total        24169                       # number of WriteReq MSHR misses
system.cpu2.l1c.demand_mshr_misses::cpu2        60345                       # number of demand (read+write) MSHR misses
system.cpu2.l1c.demand_mshr_misses::total        60345                       # number of demand (read+write) MSHR misses
system.cpu2.l1c.overall_mshr_misses::cpu2        60345                       # number of overall MSHR misses
system.cpu2.l1c.overall_mshr_misses::total        60345                       # number of overall MSHR misses
system.cpu2.l1c.ReadReq_mshr_uncacheable::cpu2         9851                       # number of ReadReq MSHR uncacheable
system.cpu2.l1c.ReadReq_mshr_uncacheable::total         9851                       # number of ReadReq MSHR uncacheable
system.cpu2.l1c.WriteReq_mshr_uncacheable::cpu2         5469                       # number of WriteReq MSHR uncacheable
system.cpu2.l1c.WriteReq_mshr_uncacheable::total         5469                       # number of WriteReq MSHR uncacheable
system.cpu2.l1c.overall_mshr_uncacheable_misses::cpu2        15320                       # number of overall MSHR uncacheable misses
system.cpu2.l1c.overall_mshr_uncacheable_misses::total        15320                       # number of overall MSHR uncacheable misses
system.cpu2.l1c.ReadReq_mshr_miss_latency::cpu2    680005593                       # number of ReadReq MSHR miss cycles
system.cpu2.l1c.ReadReq_mshr_miss_latency::total    680005593                       # number of ReadReq MSHR miss cycles
system.cpu2.l1c.WriteReq_mshr_miss_latency::cpu2    565098088                       # number of WriteReq MSHR miss cycles
system.cpu2.l1c.WriteReq_mshr_miss_latency::total    565098088                       # number of WriteReq MSHR miss cycles
system.cpu2.l1c.demand_mshr_miss_latency::cpu2   1245103681                       # number of demand (read+write) MSHR miss cycles
system.cpu2.l1c.demand_mshr_miss_latency::total   1245103681                       # number of demand (read+write) MSHR miss cycles
system.cpu2.l1c.overall_mshr_miss_latency::cpu2   1245103681                       # number of overall MSHR miss cycles
system.cpu2.l1c.overall_mshr_miss_latency::total   1245103681                       # number of overall MSHR miss cycles
system.cpu2.l1c.ReadReq_mshr_uncacheable_latency::cpu2    769729433                       # number of ReadReq MSHR uncacheable cycles
system.cpu2.l1c.ReadReq_mshr_uncacheable_latency::total    769729433                       # number of ReadReq MSHR uncacheable cycles
system.cpu2.l1c.overall_mshr_uncacheable_latency::cpu2    769729433                       # number of overall MSHR uncacheable cycles
system.cpu2.l1c.overall_mshr_uncacheable_latency::total    769729433                       # number of overall MSHR uncacheable cycles
system.cpu2.l1c.ReadReq_mshr_miss_rate::cpu2     0.804519                       # mshr miss rate for ReadReq accesses
system.cpu2.l1c.ReadReq_mshr_miss_rate::total     0.804519                       # mshr miss rate for ReadReq accesses
system.cpu2.l1c.WriteReq_mshr_miss_rate::cpu2     0.954806                       # mshr miss rate for WriteReq accesses
system.cpu2.l1c.WriteReq_mshr_miss_rate::total     0.954806                       # mshr miss rate for WriteReq accesses
system.cpu2.l1c.demand_mshr_miss_rate::cpu2     0.858649                       # mshr miss rate for demand accesses
system.cpu2.l1c.demand_mshr_miss_rate::total     0.858649                       # mshr miss rate for demand accesses
system.cpu2.l1c.overall_mshr_miss_rate::cpu2     0.858649                       # mshr miss rate for overall accesses
system.cpu2.l1c.overall_mshr_miss_rate::total     0.858649                       # mshr miss rate for overall accesses
system.cpu2.l1c.ReadReq_avg_mshr_miss_latency::cpu2 18797.147086                       # average ReadReq mshr miss latency
system.cpu2.l1c.ReadReq_avg_mshr_miss_latency::total 18797.147086                       # average ReadReq mshr miss latency
system.cpu2.l1c.WriteReq_avg_mshr_miss_latency::cpu2 23381.111672                       # average WriteReq mshr miss latency
system.cpu2.l1c.WriteReq_avg_mshr_miss_latency::total 23381.111672                       # average WriteReq mshr miss latency
system.cpu2.l1c.demand_avg_mshr_miss_latency::cpu2 20633.087762                       # average overall mshr miss latency
system.cpu2.l1c.demand_avg_mshr_miss_latency::total 20633.087762                       # average overall mshr miss latency
system.cpu2.l1c.overall_avg_mshr_miss_latency::cpu2 20633.087762                       # average overall mshr miss latency
system.cpu2.l1c.overall_avg_mshr_miss_latency::total 20633.087762                       # average overall mshr miss latency
system.cpu2.l1c.ReadReq_avg_mshr_uncacheable_latency::cpu2 78137.187392                       # average ReadReq mshr uncacheable latency
system.cpu2.l1c.ReadReq_avg_mshr_uncacheable_latency::total 78137.187392                       # average ReadReq mshr uncacheable latency
system.cpu2.l1c.overall_avg_mshr_uncacheable_latency::cpu2 50243.435574                       # average overall mshr uncacheable latency
system.cpu2.l1c.overall_avg_mshr_uncacheable_latency::total 50243.435574                       # average overall mshr uncacheable latency
system.cpu3.pwrStateResidencyTicks::UNDEFINED    519755500                       # Cumulative time (in ticks) in various power states
system.cpu3.num_reads                          100000                       # number of read accesses completed
system.cpu3.num_writes                          55136                       # number of write accesses completed
system.cpu3.l1c.tags.pwrStateResidencyTicks::UNDEFINED    519755500                       # Cumulative time (in ticks) in various power states
system.cpu3.l1c.tags.replacements               22201                       # number of replacements
system.cpu3.l1c.tags.tagsinuse             392.334218                       # Cycle average of tags in use
system.cpu3.l1c.tags.total_refs                 13633                       # Total number of references to valid blocks.
system.cpu3.l1c.tags.sampled_refs               22606                       # Sample count of references to valid blocks.
system.cpu3.l1c.tags.avg_refs                0.603070                       # Average number of references to valid blocks.
system.cpu3.l1c.tags.warmup_cycle                   0                       # Cycle when the warmup percentage was hit.
system.cpu3.l1c.tags.occ_blocks::cpu3      392.334218                       # Average occupied blocks per requestor
system.cpu3.l1c.tags.occ_percent::cpu3       0.766278                       # Average percentage of cache occupancy
system.cpu3.l1c.tags.occ_percent::total      0.766278                       # Average percentage of cache occupancy
system.cpu3.l1c.tags.occ_task_id_blocks::1024          405                       # Occupied blocks per task id
system.cpu3.l1c.tags.age_task_id_blocks_1024::0          397                       # Occupied blocks per task id
system.cpu3.l1c.tags.age_task_id_blocks_1024::1            8                       # Occupied blocks per task id
system.cpu3.l1c.tags.occ_task_id_percent::1024     0.791016                       # Percentage of cache occupancy per task id
system.cpu3.l1c.tags.tag_accesses              339332                       # Number of tag accesses
system.cpu3.l1c.tags.data_accesses             339332                       # Number of data accesses
system.cpu3.l1c.pwrStateResidencyTicks::UNDEFINED    519755500                       # Cumulative time (in ticks) in various power states
system.cpu3.l1c.ReadReq_hits::cpu3               8805                       # number of ReadReq hits
system.cpu3.l1c.ReadReq_hits::total              8805                       # number of ReadReq hits
system.cpu3.l1c.WriteReq_hits::cpu3              1190                       # number of WriteReq hits
system.cpu3.l1c.WriteReq_hits::total             1190                       # number of WriteReq hits
system.cpu3.l1c.demand_hits::cpu3                9995                       # number of demand (read+write) hits
system.cpu3.l1c.demand_hits::total               9995                       # number of demand (read+write) hits
system.cpu3.l1c.overall_hits::cpu3               9995                       # number of overall hits
system.cpu3.l1c.overall_hits::total              9995                       # number of overall hits
system.cpu3.l1c.ReadReq_misses::cpu3            36852                       # number of ReadReq misses
system.cpu3.l1c.ReadReq_misses::total           36852                       # number of ReadReq misses
system.cpu3.l1c.WriteReq_misses::cpu3           23757                       # number of WriteReq misses
system.cpu3.l1c.WriteReq_misses::total          23757                       # number of WriteReq misses
system.cpu3.l1c.demand_misses::cpu3             60609                       # number of demand (read+write) misses
system.cpu3.l1c.demand_misses::total            60609                       # number of demand (read+write) misses
system.cpu3.l1c.overall_misses::cpu3            60609                       # number of overall misses
system.cpu3.l1c.overall_misses::total           60609                       # number of overall misses
system.cpu3.l1c.ReadReq_miss_latency::cpu3    737200497                       # number of ReadReq miss cycles
system.cpu3.l1c.ReadReq_miss_latency::total    737200497                       # number of ReadReq miss cycles
system.cpu3.l1c.WriteReq_miss_latency::cpu3    577684792                       # number of WriteReq miss cycles
system.cpu3.l1c.WriteReq_miss_latency::total    577684792                       # number of WriteReq miss cycles
system.cpu3.l1c.demand_miss_latency::cpu3   1314885289                       # number of demand (read+write) miss cycles
system.cpu3.l1c.demand_miss_latency::total   1314885289                       # number of demand (read+write) miss cycles
system.cpu3.l1c.overall_miss_latency::cpu3   1314885289                       # number of overall miss cycles
system.cpu3.l1c.overall_miss_latency::total   1314885289                       # number of overall miss cycles
system.cpu3.l1c.ReadReq_accesses::cpu3          45657                       # number of ReadReq accesses(hits+misses)
system.cpu3.l1c.ReadReq_accesses::total         45657                       # number of ReadReq accesses(hits+misses)
system.cpu3.l1c.WriteReq_accesses::cpu3         24947                       # number of WriteReq accesses(hits+misses)
system.cpu3.l1c.WriteReq_accesses::total        24947                       # number of WriteReq accesses(hits+misses)
system.cpu3.l1c.demand_accesses::cpu3           70604                       # number of demand (read+write) accesses
system.cpu3.l1c.demand_accesses::total          70604                       # number of demand (read+write) accesses
system.cpu3.l1c.overall_accesses::cpu3          70604                       # number of overall (read+write) accesses
system.cpu3.l1c.overall_accesses::total         70604                       # number of overall (read+write) accesses
system.cpu3.l1c.ReadReq_miss_rate::cpu3      0.807149                       # miss rate for ReadReq accesses
system.cpu3.l1c.ReadReq_miss_rate::total     0.807149                       # miss rate for ReadReq accesses
system.cpu3.l1c.WriteReq_miss_rate::cpu3     0.952299                       # miss rate for WriteReq accesses
system.cpu3.l1c.WriteReq_miss_rate::total     0.952299                       # miss rate for WriteReq accesses
system.cpu3.l1c.demand_miss_rate::cpu3       0.858436                       # miss rate for demand accesses
system.cpu3.l1c.demand_miss_rate::total      0.858436                       # miss rate for demand accesses
system.cpu3.l1c.overall_miss_rate::cpu3      0.858436                       # miss rate for overall accesses
system.cpu3.l1c.overall_miss_rate::total     0.858436                       # miss rate for overall accesses
system.cpu3.l1c.ReadReq_avg_miss_latency::cpu3 20004.355177                       # average ReadReq miss latency
system.cpu3.l1c.ReadReq_avg_miss_latency::total 20004.355177                       # average ReadReq miss latency
system.cpu3.l1c.WriteReq_avg_miss_latency::cpu3 24316.403250                       # average WriteReq miss latency
system.cpu3.l1c.WriteReq_avg_miss_latency::total 24316.403250                       # average WriteReq miss latency
system.cpu3.l1c.demand_avg_miss_latency::cpu3 21694.555083                       # average overall miss latency
system.cpu3.l1c.demand_avg_miss_latency::total 21694.555083                       # average overall miss latency
system.cpu3.l1c.overall_avg_miss_latency::cpu3 21694.555083                       # average overall miss latency
system.cpu3.l1c.overall_avg_miss_latency::total 21694.555083                       # average overall miss latency
system.cpu3.l1c.blocked_cycles::no_mshrs       880663                       # number of cycles access was blocked
system.cpu3.l1c.blocked_cycles::no_targets            0                       # number of cycles access was blocked
system.cpu3.l1c.blocked::no_mshrs               67164                       # number of cycles access was blocked
system.cpu3.l1c.blocked::no_targets                 0                       # number of cycles access was blocked
system.cpu3.l1c.avg_blocked_cycles::no_mshrs    13.112129                       # average number of cycles each access was blocked
system.cpu3.l1c.avg_blocked_cycles::no_targets          nan                       # average number of cycles each access was blocked
system.cpu3.l1c.writebacks::writebacks           9556                       # number of writebacks
system.cpu3.l1c.writebacks::total                9556                       # number of writebacks
system.cpu3.l1c.ReadReq_mshr_misses::cpu3        36852                       # number of ReadReq MSHR misses
system.cpu3.l1c.ReadReq_mshr_misses::total        36852                       # number of ReadReq MSHR misses
system.cpu3.l1c.WriteReq_mshr_misses::cpu3        23757                       # number of WriteReq MSHR misses
system.cpu3.l1c.WriteReq_mshr_misses::total        23757                       # number of WriteReq MSHR misses
system.cpu3.l1c.demand_mshr_misses::cpu3        60609                       # number of demand (read+write) MSHR misses
system.cpu3.l1c.demand_mshr_misses::total        60609                       # number of demand (read+write) MSHR misses
system.cpu3.l1c.overall_mshr_misses::cpu3        60609                       # number of overall MSHR misses
system.cpu3.l1c.overall_mshr_misses::total        60609                       # number of overall MSHR misses
system.cpu3.l1c.ReadReq_mshr_uncacheable::cpu3         9752                       # number of ReadReq MSHR uncacheable
system.cpu3.l1c.ReadReq_mshr_uncacheable::total         9752                       # number of ReadReq MSHR uncacheable
system.cpu3.l1c.WriteReq_mshr_uncacheable::cpu3         5506                       # number of WriteReq MSHR uncacheable
system.cpu3.l1c.WriteReq_mshr_uncacheable::total         5506                       # number of WriteReq MSHR uncacheable
system.cpu3.l1c.overall_mshr_uncacheable_misses::cpu3        15258                       # number of overall MSHR uncacheable misses
system.cpu3.l1c.overall_mshr_uncacheable_misses::total        15258                       # number of overall MSHR uncacheable misses
system.cpu3.l1c.ReadReq_mshr_miss_latency::cpu3    700349497                       # number of ReadReq MSHR miss cycles
system.cpu3.l1c.ReadReq_mshr_miss_latency::total    700349497                       # number of ReadReq MSHR miss cycles
system.cpu3.l1c.WriteReq_mshr_miss_latency::cpu3    553928792                       # number of WriteReq MSHR miss cycles
system.cpu3.l1c.WriteReq_mshr_miss_latency::total    553928792                       # number of WriteReq MSHR miss cycles
system.cpu3.l1c.demand_mshr_miss_latency::cpu3   1254278289                       # number of demand (read+write) MSHR miss cycles
system.cpu3.l1c.demand_mshr_miss_latency::total   1254278289                       # number of demand (read+write) MSHR miss cycles
system.cpu3.l1c.overall_mshr_miss_latency::cpu3   1254278289                       # number of overall MSHR miss cycles
system.cpu3.l1c.overall_mshr_miss_latency::total   1254278289                       # number of overall MSHR miss cycles
system.cpu3.l1c.ReadReq_mshr_uncacheable_latency::cpu3    761853080                       # number of ReadReq MSHR uncacheable cycles
system.cpu3.l1c.ReadReq_mshr_uncacheable_latency::total    761853080                       # number of ReadReq MSHR uncacheable cycles
system.cpu3.l1c.overall_mshr_uncacheable_latency::cpu3    761853080                       # number of overall MSHR uncacheable cycles
system.cpu3.l1c.overall_mshr_uncacheable_latency::total    761853080                       # number of overall MSHR uncacheable cycles
system.cpu3.l1c.ReadReq_mshr_miss_rate::cpu3     0.807149                       # mshr miss rate for ReadReq accesses
system.cpu3.l1c.ReadReq_mshr_miss_rate::total     0.807149                       # mshr miss rate for ReadReq accesses
system.cpu3.l1c.WriteReq_mshr_miss_rate::cpu3     0.952299                       # mshr miss rate for WriteReq accesses
system.cpu3.l1c.WriteReq_mshr_miss_rate::total     0.952299                       # mshr miss rate for WriteReq accesses
system.cpu3.l1c.demand_mshr_miss_rate::cpu3     0.858436                       # mshr miss rate for demand accesses
system.cpu3.l1c.demand_mshr_miss_rate::total     0.858436                       # mshr miss rate for demand accesses
system.cpu3.l1c.overall_mshr_miss_rate::cpu3     0.858436                       # mshr miss rate for overall accesses
system.cpu3.l1c.overall_mshr_miss_rate::total     0.858436                       # mshr miss rate for overall accesses
system.cpu3.l1c.ReadReq_avg_mshr_miss_latency::cpu3 19004.382313                       # average ReadReq mshr miss latency
system.cpu3.l1c.ReadReq_avg_mshr_miss_latency::total 19004.382313                       # average ReadReq mshr miss latency
system.cpu3.l1c.WriteReq_avg_mshr_miss_latency::cpu3 23316.445342                       # average WriteReq mshr miss latency
system.cpu3.l1c.WriteReq_avg_mshr_miss_latency::total 23316.445342                       # average WriteReq mshr miss latency
system.cpu3.l1c.demand_avg_mshr_miss_latency::cpu3 20694.588081                       # average overall mshr miss latency
system.cpu3.l1c.demand_avg_mshr_miss_latency::total 20694.588081                       # average overall mshr miss latency
system.cpu3.l1c.overall_avg_mshr_miss_latency::cpu3 20694.588081                       # average overall mshr miss latency
system.cpu3.l1c.overall_avg_mshr_miss_latency::total 20694.588081                       # average overall mshr miss latency
system.cpu3.l1c.ReadReq_avg_mshr_uncacheable_latency::cpu3 78122.752256                       # average ReadReq mshr uncacheable latency
system.cpu3.l1c.ReadReq_avg_mshr_uncacheable_latency::total 78122.752256                       # average ReadReq mshr uncacheable latency
system.cpu3.l1c.overall_avg_mshr_uncacheable_latency::cpu3 49931.385503                       # average overall mshr uncacheable latency
system.cpu3.l1c.overall_avg_mshr_uncacheable_latency::total 49931.385503                       # average overall mshr uncacheable latency
system.cpu4.pwrStateResidencyTicks::UNDEFINED    519755500                       # Cumulative time (in ticks) in various power states
system.cpu4.num_reads                           99808                       # number of read accesses completed
system.cpu4.num_writes                          55157                       # number of write accesses completed
system.cpu4.l1c.tags.pwrStateResidencyTicks::UNDEFINED    519755500                       # Cumulative time (in ticks) in various power states
system.cpu4.l1c.tags.replacements               22030                       # number of replacements
system.cpu4.l1c.tags.tagsinuse             392.026241                       # Cycle average of tags in use
system.cpu4.l1c.tags.total_refs                 13726                       # Total number of references to valid blocks.
system.cpu4.l1c.tags.sampled_refs               22418                       # Sample count of references to valid blocks.
system.cpu4.l1c.tags.avg_refs                0.612276                       # Average number of references to valid blocks.
system.cpu4.l1c.tags.warmup_cycle                   0                       # Cycle when the warmup percentage was hit.
system.cpu4.l1c.tags.occ_blocks::cpu4      392.026241                       # Average occupied blocks per requestor
system.cpu4.l1c.tags.occ_percent::cpu4       0.765676                       # Average percentage of cache occupancy
system.cpu4.l1c.tags.occ_percent::total      0.765676                       # Average percentage of cache occupancy
system.cpu4.l1c.tags.occ_task_id_blocks::1024          388                       # Occupied blocks per task id
system.cpu4.l1c.tags.age_task_id_blocks_1024::0          372                       # Occupied blocks per task id
system.cpu4.l1c.tags.age_task_id_blocks_1024::1           16                       # Occupied blocks per task id
system.cpu4.l1c.tags.occ_task_id_percent::1024     0.757812                       # Percentage of cache occupancy per task id
system.cpu4.l1c.tags.tag_accesses              338084                       # Number of tag accesses
system.cpu4.l1c.tags.data_accesses             338084                       # Number of data accesses
system.cpu4.l1c.pwrStateResidencyTicks::UNDEFINED    519755500                       # Cumulative time (in ticks) in various power states
system.cpu4.l1c.ReadReq_hits::cpu4               8869                       # number of ReadReq hits
system.cpu4.l1c.ReadReq_hits::total              8869                       # number of ReadReq hits
system.cpu4.l1c.WriteReq_hits::cpu4              1181                       # number of WriteReq hits
system.cpu4.l1c.WriteReq_hits::total             1181                       # number of WriteReq hits
system.cpu4.l1c.demand_hits::cpu4               10050                       # number of demand (read+write) hits
system.cpu4.l1c.demand_hits::total              10050                       # number of demand (read+write) hits
system.cpu4.l1c.overall_hits::cpu4              10050                       # number of overall hits
system.cpu4.l1c.overall_hits::total             10050                       # number of overall hits
system.cpu4.l1c.ReadReq_misses::cpu4            36458                       # number of ReadReq misses
system.cpu4.l1c.ReadReq_misses::total           36458                       # number of ReadReq misses
system.cpu4.l1c.WriteReq_misses::cpu4           23868                       # number of WriteReq misses
system.cpu4.l1c.WriteReq_misses::total          23868                       # number of WriteReq misses
system.cpu4.l1c.demand_misses::cpu4             60326                       # number of demand (read+write) misses
system.cpu4.l1c.demand_misses::total            60326                       # number of demand (read+write) misses
system.cpu4.l1c.overall_misses::cpu4            60326                       # number of overall misses
system.cpu4.l1c.overall_misses::total           60326                       # number of overall misses
system.cpu4.l1c.ReadReq_miss_latency::cpu4    723342269                       # number of ReadReq miss cycles
system.cpu4.l1c.ReadReq_miss_latency::total    723342269                       # number of ReadReq miss cycles
system.cpu4.l1c.WriteReq_miss_latency::cpu4    578669341                       # number of WriteReq miss cycles
system.cpu4.l1c.WriteReq_miss_latency::total    578669341                       # number of WriteReq miss cycles
system.cpu4.l1c.demand_miss_latency::cpu4   1302011610                       # number of demand (read+write) miss cycles
system.cpu4.l1c.demand_miss_latency::total   1302011610                       # number of demand (read+write) miss cycles
system.cpu4.l1c.overall_miss_latency::cpu4   1302011610                       # number of overall miss cycles
system.cpu4.l1c.overall_miss_latency::total   1302011610                       # number of overall miss cycles
system.cpu4.l1c.ReadReq_accesses::cpu4          45327                       # number of ReadReq accesses(hits+misses)
system.cpu4.l1c.ReadReq_accesses::total         45327                       # number of ReadReq accesses(hits+misses)
system.cpu4.l1c.WriteReq_accesses::cpu4         25049                       # number of WriteReq accesses(hits+misses)
system.cpu4.l1c.WriteReq_accesses::total        25049                       # number of WriteReq accesses(hits+misses)
system.cpu4.l1c.demand_accesses::cpu4           70376                       # number of demand (read+write) accesses
system.cpu4.l1c.demand_accesses::total          70376                       # number of demand (read+write) accesses
system.cpu4.l1c.overall_accesses::cpu4          70376                       # number of overall (read+write) accesses
system.cpu4.l1c.overall_accesses::total         70376                       # number of overall (read+write) accesses
system.cpu4.l1c.ReadReq_miss_rate::cpu4      0.804333                       # miss rate for ReadReq accesses
system.cpu4.l1c.ReadReq_miss_rate::total     0.804333                       # miss rate for ReadReq accesses
system.cpu4.l1c.WriteReq_miss_rate::cpu4     0.952852                       # miss rate for WriteReq accesses
system.cpu4.l1c.WriteReq_miss_rate::total     0.952852                       # miss rate for WriteReq accesses
system.cpu4.l1c.demand_miss_rate::cpu4       0.857196                       # miss rate for demand accesses
system.cpu4.l1c.demand_miss_rate::total      0.857196                       # miss rate for demand accesses
system.cpu4.l1c.overall_miss_rate::cpu4      0.857196                       # miss rate for overall accesses
system.cpu4.l1c.overall_miss_rate::total     0.857196                       # miss rate for overall accesses
system.cpu4.l1c.ReadReq_avg_miss_latency::cpu4 19840.426491                       # average ReadReq miss latency
system.cpu4.l1c.ReadReq_avg_miss_latency::total 19840.426491                       # average ReadReq miss latency
system.cpu4.l1c.WriteReq_avg_miss_latency::cpu4 24244.567664                       # average WriteReq miss latency
system.cpu4.l1c.WriteReq_avg_miss_latency::total 24244.567664                       # average WriteReq miss latency
system.cpu4.l1c.demand_avg_miss_latency::cpu4 21582.926267                       # average overall miss latency
system.cpu4.l1c.demand_avg_miss_latency::total 21582.926267                       # average overall miss latency
system.cpu4.l1c.overall_avg_miss_latency::cpu4 21582.926267                       # average overall miss latency
system.cpu4.l1c.overall_avg_miss_latency::total 21582.926267                       # average overall miss latency
system.cpu4.l1c.blocked_cycles::no_mshrs       883463                       # number of cycles access was blocked
system.cpu4.l1c.blocked_cycles::no_targets            0                       # number of cycles access was blocked
system.cpu4.l1c.blocked::no_mshrs               67109                       # number of cycles access was blocked
system.cpu4.l1c.blocked::no_targets                 0                       # number of cycles access was blocked
system.cpu4.l1c.avg_blocked_cycles::no_mshrs    13.164598                       # average number of cycles each access was blocked
system.cpu4.l1c.avg_blocked_cycles::no_targets          nan                       # average number of cycles each access was blocked
system.cpu4.l1c.writebacks::writebacks           9613                       # number of writebacks
system.cpu4.l1c.writebacks::total                9613                       # number of writebacks
system.cpu4.l1c.ReadReq_mshr_misses::cpu4        36458                       # number of ReadReq MSHR misses
system.cpu4.l1c.ReadReq_mshr_misses::total        36458                       # number of ReadReq MSHR misses
system.cpu4.l1c.WriteReq_mshr_misses::cpu4        23868                       # number of WriteReq MSHR misses
system.cpu4.l1c.WriteReq_mshr_misses::total        23868                       # number of WriteReq MSHR misses
system.cpu4.l1c.demand_mshr_misses::cpu4        60326                       # number of demand (read+write) MSHR misses
system.cpu4.l1c.demand_mshr_misses::total        60326                       # number of demand (read+write) MSHR misses
system.cpu4.l1c.overall_mshr_misses::cpu4        60326                       # number of overall MSHR misses
system.cpu4.l1c.overall_mshr_misses::total        60326                       # number of overall MSHR misses
system.cpu4.l1c.ReadReq_mshr_uncacheable::cpu4         9934                       # number of ReadReq MSHR uncacheable
system.cpu4.l1c.ReadReq_mshr_uncacheable::total         9934                       # number of ReadReq MSHR uncacheable
system.cpu4.l1c.WriteReq_mshr_uncacheable::cpu4         5430                       # number of WriteReq MSHR uncacheable
system.cpu4.l1c.WriteReq_mshr_uncacheable::total         5430                       # number of WriteReq MSHR uncacheable
system.cpu4.l1c.overall_mshr_uncacheable_misses::cpu4        15364                       # number of overall MSHR uncacheable misses
system.cpu4.l1c.overall_mshr_uncacheable_misses::total        15364                       # number of overall MSHR uncacheable misses
system.cpu4.l1c.ReadReq_mshr_miss_latency::cpu4    686885269                       # number of ReadReq MSHR miss cycles
system.cpu4.l1c.ReadReq_mshr_miss_latency::total    686885269                       # number of ReadReq MSHR miss cycles
system.cpu4.l1c.WriteReq_mshr_miss_latency::cpu4    554802341                       # number of WriteReq MSHR miss cycles
system.cpu4.l1c.WriteReq_mshr_miss_latency::total    554802341                       # number of WriteReq MSHR miss cycles
system.cpu4.l1c.demand_mshr_miss_latency::cpu4   1241687610                       # number of demand (read+write) MSHR miss cycles
system.cpu4.l1c.demand_mshr_miss_latency::total   1241687610                       # number of demand (read+write) MSHR miss cycles
system.cpu4.l1c.overall_mshr_miss_latency::cpu4   1241687610                       # number of overall MSHR miss cycles
system.cpu4.l1c.overall_mshr_miss_latency::total   1241687610                       # number of overall MSHR miss cycles
system.cpu4.l1c.ReadReq_mshr_uncacheable_latency::cpu4    775754665                       # number of ReadReq MSHR uncacheable cycles
system.cpu4.l1c.ReadReq_mshr_uncacheable_latency::total    775754665                       # number of ReadReq MSHR uncacheable cycles
system.cpu4.l1c.overall_mshr_uncacheable_latency::cpu4    775754665                       # number of overall MSHR uncacheable cycles
system.cpu4.l1c.overall_mshr_uncacheable_latency::total    775754665                       # number of overall MSHR uncacheable cycles
system.cpu4.l1c.ReadReq_mshr_miss_rate::cpu4     0.804333                       # mshr miss rate for ReadReq accesses
system.cpu4.l1c.ReadReq_mshr_miss_rate::total     0.804333                       # mshr miss rate for ReadReq accesses
system.cpu4.l1c.WriteReq_mshr_miss_rate::cpu4     0.952852                       # mshr miss rate for WriteReq accesses
system.cpu4.l1c.WriteReq_mshr_miss_rate::total     0.952852                       # mshr miss rate for WriteReq accesses
system.cpu4.l1c.demand_mshr_miss_rate::cpu4     0.857196                       # mshr miss rate for demand accesses
system.cpu4.l1c.demand_mshr_miss_rate::total     0.857196                       # mshr miss rate for demand accesses
system.cpu4.l1c.overall_mshr_miss_rate::cpu4     0.857196                       # mshr miss rate for overall accesses
system.cpu4.l1c.overall_mshr_miss_rate::total     0.857196                       # mshr miss rate for overall accesses
system.cpu4.l1c.ReadReq_avg_mshr_miss_latency::cpu4 18840.453920                       # average ReadReq mshr miss latency
system.cpu4.l1c.ReadReq_avg_mshr_miss_latency::total 18840.453920                       # average ReadReq mshr miss latency
system.cpu4.l1c.WriteReq_avg_mshr_miss_latency::cpu4 23244.609561                       # average WriteReq mshr miss latency
system.cpu4.l1c.WriteReq_avg_mshr_miss_latency::total 23244.609561                       # average WriteReq mshr miss latency
[...]
system.l2c.ReadExReq_avg_mshr_miss_latency::cpu2 33974.752432                       # average ReadExReq mshr miss latency
system.l2c.ReadExReq_avg_mshr_miss_latency::cpu3 33713.470819                       # average ReadExReq mshr miss latency
system.l2c.ReadExReq_avg_mshr_miss_latency::cpu4 34070.032730                       # average ReadExReq mshr miss latency
system.l2c.ReadExReq_avg_mshr_miss_latency::cpu5 33189.968757                       # average ReadExReq mshr miss latency
system.l2c.ReadExReq_avg_mshr_miss_latency::cpu6 33914.038504                       # average ReadExReq mshr miss latency
system.l2c.ReadExReq_avg_mshr_miss_latency::cpu7 33567.862568                       # average ReadExReq mshr miss latency
system.l2c.ReadExReq_avg_mshr_miss_latency::total 33721.740840                       # average ReadExReq mshr miss latency
system.l2c.ReadSharedReq_avg_mshr_miss_latency::cpu0 59636.324089                       # average ReadSharedReq mshr miss latency
system.l2c.ReadSharedReq_avg_mshr_miss_latency::cpu1 59460.598901                       # average ReadSharedReq mshr miss latency
system.l2c.ReadSharedReq_avg_mshr_miss_latency::cpu2 59573.574058                       # average ReadSharedReq mshr miss latency
system.l2c.ReadSharedReq_avg_mshr_miss_latency::cpu3 59335.044427                       # average ReadSharedReq mshr miss latency
system.l2c.ReadSharedReq_avg_mshr_miss_latency::cpu4 59271.335100                       # average ReadSharedReq mshr miss latency
system.l2c.ReadSharedReq_avg_mshr_miss_latency::cpu5 59626.905285                       # average ReadSharedReq mshr miss latency
system.l2c.ReadSharedReq_avg_mshr_miss_latency::cpu6 59390.258103                       # average ReadSharedReq mshr miss latency
system.l2c.ReadSharedReq_avg_mshr_miss_latency::cpu7 59618.713996                       # average ReadSharedReq mshr miss latency
system.l2c.ReadSharedReq_avg_mshr_miss_latency::total 59487.390947                       # average ReadSharedReq mshr miss latency
system.l2c.demand_avg_mshr_miss_latency::cpu0 42584.838714                       # average overall mshr miss latency
system.l2c.demand_avg_mshr_miss_latency::cpu1 42788.397402                       # average overall mshr miss latency
system.l2c.demand_avg_mshr_miss_latency::cpu2 42565.306565                       # average overall mshr miss latency
system.l2c.demand_avg_mshr_miss_latency::cpu3 42794.306903                       # average overall mshr miss latency
system.l2c.demand_avg_mshr_miss_latency::cpu4 42856.103610                       # average overall mshr miss latency
system.l2c.demand_avg_mshr_miss_latency::cpu5 42389.977790                       # average overall mshr miss latency
system.l2c.demand_avg_mshr_miss_latency::cpu6 43024.262615                       # average overall mshr miss latency
system.l2c.demand_avg_mshr_miss_latency::cpu7 42448.425252                       # average overall mshr miss latency
system.l2c.demand_avg_mshr_miss_latency::total 42681.159050                       # average overall mshr miss latency
system.l2c.overall_avg_mshr_miss_latency::cpu0 42584.838714                       # average overall mshr miss latency
system.l2c.overall_avg_mshr_miss_latency::cpu1 42788.397402                       # average overall mshr miss latency
system.l2c.overall_avg_mshr_miss_latency::cpu2 42565.306565                       # average overall mshr miss latency
system.l2c.overall_avg_mshr_miss_latency::cpu3 42794.306903                       # average overall mshr miss latency
system.l2c.overall_avg_mshr_miss_latency::cpu4 42856.103610                       # average overall mshr miss latency
system.l2c.overall_avg_mshr_miss_latency::cpu5 42389.977790                       # average overall mshr miss latency
system.l2c.overall_avg_mshr_miss_latency::cpu6 43024.262615                       # average overall mshr miss latency
system.l2c.overall_avg_mshr_miss_latency::cpu7 42448.425252                       # average overall mshr miss latency
system.l2c.overall_avg_mshr_miss_latency::total 42681.159050                       # average overall mshr miss latency
system.l2c.ReadReq_avg_mshr_uncacheable_latency::cpu0 56955.320701                       # average ReadReq mshr uncacheable latency
system.l2c.ReadReq_avg_mshr_uncacheable_latency::cpu1 56933.349171                       # average ReadReq mshr uncacheable latency
system.l2c.ReadReq_avg_mshr_uncacheable_latency::cpu2 56976.635367                       # average ReadReq mshr uncacheable latency
system.l2c.ReadReq_avg_mshr_uncacheable_latency::cpu3 57016.508973                       # average ReadReq mshr uncacheable latency
system.l2c.ReadReq_avg_mshr_uncacheable_latency::cpu4 57030.747433                       # average ReadReq mshr uncacheable latency
system.l2c.ReadReq_avg_mshr_uncacheable_latency::cpu5 57100.532893                       # average ReadReq mshr uncacheable latency
system.l2c.ReadReq_avg_mshr_uncacheable_latency::cpu6 57010.469695                       # average ReadReq mshr uncacheable latency
system.l2c.ReadReq_avg_mshr_uncacheable_latency::cpu7 56861.378569                       # average ReadReq mshr uncacheable latency
system.l2c.ReadReq_avg_mshr_uncacheable_latency::total 56985.605898                       # average ReadReq mshr uncacheable latency
system.l2c.overall_avg_mshr_uncacheable_latency::cpu0 36463.967564                       # average overall mshr uncacheable latency
system.l2c.overall_avg_mshr_uncacheable_latency::cpu1 36903.990819                       # average overall mshr uncacheable latency
system.l2c.overall_avg_mshr_uncacheable_latency::cpu2 36639.260722                       # average overall mshr uncacheable latency
system.l2c.overall_avg_mshr_uncacheable_latency::cpu3 36444.967486                       # average overall mshr uncacheable latency
system.l2c.overall_avg_mshr_uncacheable_latency::cpu4 36874.736071                       # average overall mshr uncacheable latency
system.l2c.overall_avg_mshr_uncacheable_latency::cpu5 36973.458388                       # average overall mshr uncacheable latency
system.l2c.overall_avg_mshr_uncacheable_latency::cpu6 36389.582640                       # average overall mshr uncacheable latency
system.l2c.overall_avg_mshr_uncacheable_latency::cpu7 36303.632405                       # average overall mshr uncacheable latency
system.l2c.overall_avg_mshr_uncacheable_latency::total 36623.814788                       # average overall mshr uncacheable latency
system.membus.snoop_filter.tot_requests        164288                       # Total number of requests made to the snoop filter.
system.membus.snoop_filter.hit_single_requests       148961                       # Number of requests hitting in the snoop filter with a single holder of the requested data.
system.membus.snoop_filter.hit_multi_requests            0                       # Number of requests hitting in the snoop filter with multiple (>1) holders of the requested data.
system.membus.snoop_filter.tot_snoops               0                       # Total number of snoops made to the snoop filter.
system.membus.snoop_filter.hit_single_snoops            0                       # Number of snoops hitting in the snoop filter with a single holder of the requested data.
system.membus.snoop_filter.hit_multi_snoops            0                       # Number of snoops hitting in the snoop filter with multiple (>1) holders of the requested data.
system.membus.pwrStateResidencyTicks::UNDEFINED    519755500                       # Cumulative time (in ticks) in various power states
system.membus.trans_dist::ReadReq               78834                       # Transaction distribution
system.membus.trans_dist::ReadResp              98509                       # Transaction distribution
system.membus.trans_dist::WriteReq              43828                       # Transaction distribution
system.membus.trans_dist::WriteResp             43821                       # Transaction distribution
system.membus.trans_dist::WritebackDirty        22214                       # Transaction distribution
system.membus.trans_dist::CleanEvict             4965                       # Transaction distribution
system.membus.trans_dist::UpgradeReq            52120                       # Transaction distribution
system.membus.trans_dist::ReadExReq             56238                       # Transaction distribution
system.membus.trans_dist::ReadExResp            10901                       # Transaction distribution
system.membus.trans_dist::ReadSharedReq         19680                       # Transaction distribution
system.membus.pkt_count_system.l2c.mem_side::system.physmem.port       431110                       # Packet count per connected master and slave (bytes)
system.membus.pkt_count::total                 431110                       # Packet count per connected master and slave (bytes)
system.membus.pkt_size_system.l2c.mem_side::system.physmem.port      3501537                       # Cumulative packet size per connected master and slave (bytes)
system.membus.pkt_size::total                 3501537                       # Cumulative packet size per connected master and slave (bytes)
system.membus.snoops                            56051                       # Total snoops (count)
system.membus.snoopTraffic                          0                       # Total snoop traffic (bytes)
system.membus.snoop_fanout::samples            276559                       # Request fanout histogram
system.membus.snoop_fanout::mean                    0                       # Request fanout histogram
system.membus.snoop_fanout::stdev                   0                       # Request fanout histogram
system.membus.snoop_fanout::underflows              0      0.00%      0.00% # Request fanout histogram
system.membus.snoop_fanout::0                  276559    100.00%    100.00% # Request fanout histogram
system.membus.snoop_fanout::1                       0      0.00%    100.00% # Request fanout histogram
system.membus.snoop_fanout::overflows               0      0.00%    100.00% # Request fanout histogram
system.membus.snoop_fanout::min_value               0                       # Request fanout histogram
system.membus.snoop_fanout::max_value               0                       # Request fanout histogram
system.membus.snoop_fanout::total              276559                       # Request fanout histogram
system.membus.reqLayer0.occupancy           402118445                       # Layer occupancy (ticks)
system.membus.reqLayer0.utilization              77.4                       # Layer utilization (%)
system.membus.respLayer0.occupancy          354384000                       # Layer occupancy (ticks)
system.membus.respLayer0.utilization             68.2                       # Layer utilization (%)
system.toL2Bus.snoop_filter.tot_requests       665414                       # Total number of requests made to the snoop filter.
system.toL2Bus.snoop_filter.hit_single_requests       284013                       # Number of requests hitting in the snoop filter with a single holder of the requested data.
system.toL2Bus.snoop_filter.hit_multi_requests       335409                       # Number of requests hitting in the snoop filter with multiple (>1) holders of the requested data.
system.toL2Bus.snoop_filter.tot_snoops          85048                       # Total number of snoops made to the snoop filter.
system.toL2Bus.snoop_filter.hit_single_snoops        42676                       # Number of snoops hitting in the snoop filter with a single holder of the requested data.
system.toL2Bus.snoop_filter.hit_multi_snoops        42372                       # Number of snoops hitting in the snoop filter with multiple (>1) holders of the requested data.
system.toL2Bus.pwrStateResidencyTicks::UNDEFINED    519755500                       # Cumulative time (in ticks) in various power states
system.toL2Bus.trans_dist::ReadReq              78835                       # Transaction distribution
system.toL2Bus.trans_dist::ReadResp            370283                       # Transaction distribution
system.toL2Bus.trans_dist::ReadRespWithInvalidate            4                       # Transaction distribution
system.toL2Bus.trans_dist::WriteReq             43830                       # Transaction distribution
system.toL2Bus.trans_dist::WriteResp            43821                       # Transaction distribution
system.toL2Bus.trans_dist::WritebackDirty        98472                       # Transaction distribution
system.toL2Bus.trans_dist::CleanEvict          166953                       # Transaction distribution
system.toL2Bus.trans_dist::UpgradeReq           29477                       # Transaction distribution
system.toL2Bus.trans_dist::UpgradeResp          29475                       # Transaction distribution
system.toL2Bus.trans_dist::ReadExReq           161940                       # Transaction distribution
system.toL2Bus.trans_dist::ReadExResp          161937                       # Transaction distribution
system.toL2Bus.trans_dist::ReadSharedReq       291468                       # Transaction distribution
system.toL2Bus.pkt_count_system.cpu0.l1c.mem_side::system.l2c.cpu_side       133769                       # Packet count per connected master and slave (bytes)
system.toL2Bus.pkt_count_system.cpu1.l1c.mem_side::system.l2c.cpu_side       133274                       # Packet count per connected master and slave (bytes)
system.toL2Bus.pkt_count_system.cpu2.l1c.mem_side::system.l2c.cpu_side       133373                       # Packet count per connected master and slave (bytes)
system.toL2Bus.pkt_count_system.cpu3.l1c.mem_side::system.l2c.cpu_side       133750                       # Packet count per connected master and slave (bytes)
system.toL2Bus.pkt_count_system.cpu4.l1c.mem_side::system.l2c.cpu_side       133468                       # Packet count per connected master and slave (bytes)
system.toL2Bus.pkt_count_system.cpu5.l1c.mem_side::system.l2c.cpu_side       133407                       # Packet count per connected master and slave (bytes)
system.toL2Bus.pkt_count_system.cpu6.l1c.mem_side::system.l2c.cpu_side       133623                       # Packet count per connected master and slave (bytes)
system.toL2Bus.pkt_count_system.cpu7.l1c.mem_side::system.l2c.cpu_side       133404                       # Packet count per connected master and slave (bytes)
system.toL2Bus.pkt_count::total               1068068                       # Packet count per connected master and slave (bytes)
system.toL2Bus.pkt_size_system.cpu0.l1c.mem_side::system.l2c.cpu_side      1804723                       # Cumulative packet size per connected master and slave (bytes)
system.toL2Bus.pkt_size_system.cpu1.l1c.mem_side::system.l2c.cpu_side      1795646                       # Cumulative packet size per connected master and slave (bytes)
system.toL2Bus.pkt_size_system.cpu2.l1c.mem_side::system.l2c.cpu_side      1797908                       # Cumulative packet size per connected master and slave (bytes)
system.toL2Bus.pkt_size_system.cpu3.l1c.mem_side::system.l2c.cpu_side      1798742                       # Cumulative packet size per connected master and slave (bytes)
system.toL2Bus.pkt_size_system.cpu4.l1c.mem_side::system.l2c.cpu_side      1795138                       # Cumulative packet size per connected master and slave (bytes)
system.toL2Bus.pkt_size_system.cpu5.l1c.mem_side::system.l2c.cpu_side      1788203                       # Cumulative packet size per connected master and slave (bytes)
system.toL2Bus.pkt_size_system.cpu6.l1c.mem_side::system.l2c.cpu_side      1789204                       # Cumulative packet size per connected master and slave (bytes)
system.toL2Bus.pkt_size_system.cpu7.l1c.mem_side::system.l2c.cpu_side      1803712                       # Cumulative packet size per connected master and slave (bytes)
system.toL2Bus.pkt_size::total               14373276                       # Cumulative packet size per connected master and slave (bytes)
system.toL2Bus.snoops                          408427                       # Total snoops (count)
system.toL2Bus.snoopTraffic                  21069312                       # Total snoop traffic (bytes)
system.toL2Bus.snoop_fanout::samples           705291                       # Request fanout histogram
system.toL2Bus.snoop_fanout::mean            1.195765                       # Request fanout histogram
system.toL2Bus.snoop_fanout::stdev           0.989501                       # Request fanout histogram
system.toL2Bus.snoop_fanout::underflows             0      0.00%      0.00% # Request fanout histogram
system.toL2Bus.snoop_fanout::0                 180431     25.58%     25.58% # Request fanout histogram
system.toL2Bus.snoop_fanout::1                 295517     41.90%     67.48% # Request fanout histogram
system.toL2Bus.snoop_fanout::2                 157808     22.37%     89.86% # Request fanout histogram
system.toL2Bus.snoop_fanout::3                  56265      7.98%     97.83% # Request fanout histogram
system.toL2Bus.snoop_fanout::4                  13098      1.86%     99.69% # Request fanout histogram
system.toL2Bus.snoop_fanout::5                   1998      0.28%     99.98% # Request fanout histogram
system.toL2Bus.snoop_fanout::6                    166      0.02%    100.00% # Request fanout histogram
system.toL2Bus.snoop_fanout::7                      8      0.00%    100.00% # Request fanout histogram
system.toL2Bus.snoop_fanout::8                      0      0.00%    100.00% # Request fanout histogram
system.toL2Bus.snoop_fanout::overflows              0      0.00%    100.00% # Request fanout histogram
system.toL2Bus.snoop_fanout::min_value              0                       # Request fanout histogram
system.toL2Bus.snoop_fanout::max_value              7                       # Request fanout histogram
system.toL2Bus.snoop_fanout::total             705291                       # Request fanout histogram
system.toL2Bus.reqLayer0.occupancy          498497896                       # Layer occupancy (ticks)
system.toL2Bus.reqLayer0.utilization             95.9                       # Layer utilization (%)
system.toL2Bus.respLayer0.occupancy         102236927                       # Layer occupancy (ticks)
system.toL2Bus.respLayer0.utilization            19.7                       # Layer utilization (%)
system.toL2Bus.respLayer1.occupancy         101928534                       # Layer occupancy (ticks)
system.toL2Bus.respLayer1.utilization            19.6                       # Layer utilization (%)
system.toL2Bus.respLayer2.occupancy         102159135                       # Layer occupancy (ticks)
system.toL2Bus.respLayer2.utilization            19.7                       # Layer utilization (%)
system.toL2Bus.respLayer3.occupancy         102401165                       # Layer occupancy (ticks)
system.toL2Bus.respLayer3.utilization            19.7                       # Layer utilization (%)
system.toL2Bus.respLayer4.occupancy         102112987                       # Layer occupancy (ticks)
system.toL2Bus.respLayer4.utilization            19.6                       # Layer utilization (%)
system.toL2Bus.respLayer5.occupancy         102230994                       # Layer occupancy (ticks)
system.toL2Bus.respLayer5.utilization            19.7                       # Layer utilization (%)
system.toL2Bus.respLayer6.occupancy         102247991                       # Layer occupancy (ticks)
system.toL2Bus.respLayer6.utilization            19.7                       # Layer utilization (%)
system.toL2Bus.respLayer7.occupancy         101908995                       # Layer occupancy (ticks)
system.toL2Bus.respLayer7.utilization            19.6                       # Layer utilization (%)

---------- End Simulation Statistics   ----------
