
---------- Begin Simulation Statistics ----------
host_inst_rate                                 918892                       # Simulator instruction rate (inst/s)
host_mem_usage                                 148632                       # Number of bytes of host memory used
host_seconds                                  1980.41                       # Real time elapsed on the host
host_tick_rate                              459446111                       # Simulator tick rate (ticks/s)
sim_freq                                 1000000000000                       # Frequency of simulated ticks
sim_insts                                  1819780129                       # Number of instructions simulated
sim_seconds                                  0.909890                       # Number of seconds simulated
sim_ticks                                909890064000                       # Number of ticks simulated
system.cpu.idle_fraction                            0                       # Percentage of idle cycles
system.cpu.not_idle_fraction                        1                       # Percentage of non-idle cycles
system.cpu.numCycles                       1819780129                       # number of cpu cycles simulated
system.cpu.num_insts                       1819780129                       # Number of instructions executed
system.cpu.num_refs                         606571345                       # Number of memory references
system.cpu.workload.PROG:num_syscalls              29                       # Number of system calls

---------- End Simulation Statistics   ----------
