gem5 Simulator System.  http://gem5.org
gem5 is copyrighted software; use the --copyright option for details.

gem5 compiled Jan 23 2012 03:50:16
gem5 started Jan 23 2012 04:22:25
gem5 executing on zizzer
command line: build/ALPHA_SE_MOESI_CMP_token/gem5.opt -d build/ALPHA_SE_MOESI_CMP_token/tests/opt/quick/00.hello/alpha/tru64/simple-timing-ruby-MOESI_CMP_token -re tests/run.py build/ALPHA_SE_MOESI_CMP_token/tests/opt/quick/00.hello/alpha/tru64/simple-timing-ruby-MOESI_CMP_token
Global frequency set at 1000000000 ticks per second
info: Entering event queue @ 0.  Starting simulation...
info: Increasing stack size by one page.
Hello world!
Exiting @ tick 87899 because target called exit()
