gem5 Simulator System.  http://gem5.org
gem5 is copyrighted software; use the --copyright option for details.

gem5 compiled Jul  2 2012 09:08:16
gem5 started Jul  2 2012 15:20:44
gem5 executing on zizzer
command line: build/ARM/gem5.fast -d build/ARM/tests/fast/quick/fs/10.linux-boot/arm/linux/realview-simple-timing -re tests/run.py build/ARM/tests/fast/quick/fs/10.linux-boot/arm/linux/realview-simple-timing
Global frequency set at 1000000000000 ticks per second
info: kernel located at: /dist/m5/system/binaries/vmlinux.arm.smp.fb.2.6.38.8
info: Using bootloader at address 0x80000000
info: Entering event queue @ 0.  Starting simulation...
Exiting @ tick 2593402521000 because m5_exit instruction encountered
