gem5 Simulator System.  http://gem5.org
gem5 is copyrighted software; use the --copyright option for details.

gem5 compiled Nov 21 2011 16:24:08
gem5 started Nov 21 2011 23:30:30
gem5 executing on u200540-lin
command line: build/X86_FS/gem5.opt -d build/X86_FS/tests/opt/long/10.linux-boot/x86/linux/pc-o3-timing -re tests/run.py build/X86_FS/tests/opt/long/10.linux-boot/x86/linux/pc-o3-timing
warning: add_child('terminal'): child 'terminal' already has parent
Global frequency set at 1000000000000 ticks per second
info: kernel located at: /projects/pd/randd/dist/binaries/x86_64-vmlinux-2.6.22.9
      0: rtc: Real-time clock set to Sun Jan  1 00:00:00 2012
info: Entering event queue @ 0.  Starting simulation...
Exiting @ tick 5145286546500 because m5_exit instruction encountered
