
---------- Begin Simulation Statistics ----------
sim_seconds                                  0.000355                       # Number of seconds simulated
sim_ticks                                   354511000                       # Number of ticks simulated
final_tick                               2269421328500                       # Number of ticks from beginning of simulation (restored from checkpoints and never reset)
sim_freq                                 1000000000000                       # Frequency of simulated ticks
host_inst_rate                              172331779                       # Simulator instruction rate (inst/s)
host_op_rate                                172326683                       # Simulator op (including micro ops) rate (op/s)
host_tick_rate                              452835307                       # Simulator tick rate (ticks/s)
host_mem_usage                                1281440                       # Number of bytes of host memory used
host_seconds                                     0.78                       # Real time elapsed on the host
sim_insts                                   134905564                       # Number of instructions simulated
sim_ops                                     134905564                       # Number of ops (including micro ops) simulated
system.voltage_domain.voltage                       1                       # Voltage in Volts
system.clk_domain.clock                          1000                       # Clock period in ticks
system.mem_ctrls0.bytes_read::switch_cpus0.inst       113344                       # Number of bytes read from this memory
system.mem_ctrls0.bytes_read::switch_cpus0.data        40384                       # Number of bytes read from this memory
system.mem_ctrls0.bytes_read::switch_cpus1.inst        11136                       # Number of bytes read from this memory
system.mem_ctrls0.bytes_read::switch_cpus1.data        31296                       # Number of bytes read from this memory
system.mem_ctrls0.bytes_read::switch_cpus3.inst        98688                       # Number of bytes read from this memory
system.mem_ctrls0.bytes_read::switch_cpus3.data       246592                       # Number of bytes read from this memory
system.mem_ctrls0.bytes_read::total            541440                       # Number of bytes read from this memory
system.mem_ctrls0.bytes_inst_read::switch_cpus0.inst       113344                       # Number of instructions bytes read from this memory
system.mem_ctrls0.bytes_inst_read::switch_cpus1.inst        11136                       # Number of instructions bytes read from this memory
system.mem_ctrls0.bytes_inst_read::switch_cpus3.inst        98688                       # Number of instructions bytes read from this memory
system.mem_ctrls0.bytes_inst_read::total       223168                       # Number of instructions bytes read from this memory
system.mem_ctrls0.bytes_written::writebacks       114048                       # Number of bytes written to this memory
system.mem_ctrls0.bytes_written::total         114048                       # Number of bytes written to this memory
system.mem_ctrls0.num_reads::switch_cpus0.inst         1771                       # Number of read requests responded to by this memory
system.mem_ctrls0.num_reads::switch_cpus0.data          631                       # Number of read requests responded to by this memory
system.mem_ctrls0.num_reads::switch_cpus1.inst          174                       # Number of read requests responded to by this memory
system.mem_ctrls0.num_reads::switch_cpus1.data          489                       # Number of read requests responded to by this memory
system.mem_ctrls0.num_reads::switch_cpus3.inst         1542                       # Number of read requests responded to by this memory
system.mem_ctrls0.num_reads::switch_cpus3.data         3853                       # Number of read requests responded to by this memory
system.mem_ctrls0.num_reads::total               8460                       # Number of read requests responded to by this memory
system.mem_ctrls0.num_writes::writebacks         1782                       # Number of write requests responded to by this memory
system.mem_ctrls0.num_writes::total              1782                       # Number of write requests responded to by this memory
system.mem_ctrls0.bw_read::switch_cpus0.inst    319719275                       # Total read bandwidth from this memory (bytes/s)
system.mem_ctrls0.bw_read::switch_cpus0.data    113914660                       # Total read bandwidth from this memory (bytes/s)
system.mem_ctrls0.bw_read::switch_cpus1.inst     31412283                       # Total read bandwidth from this memory (bytes/s)
system.mem_ctrls0.bw_read::switch_cpus1.data     88279348                       # Total read bandwidth from this memory (bytes/s)
system.mem_ctrls0.bw_read::switch_cpus3.inst    278377822                       # Total read bandwidth from this memory (bytes/s)
system.mem_ctrls0.bw_read::switch_cpus3.data    695583494                       # Total read bandwidth from this memory (bytes/s)
system.mem_ctrls0.bw_read::total           1527286882                       # Total read bandwidth from this memory (bytes/s)
system.mem_ctrls0.bw_inst_read::switch_cpus0.inst    319719275                       # Instruction read bandwidth from this memory (bytes/s)
system.mem_ctrls0.bw_inst_read::switch_cpus1.inst     31412283                       # Instruction read bandwidth from this memory (bytes/s)
system.mem_ctrls0.bw_inst_read::switch_cpus3.inst    278377822                       # Instruction read bandwidth from this memory (bytes/s)
system.mem_ctrls0.bw_inst_read::total       629509381                       # Instruction read bandwidth from this memory (bytes/s)
system.mem_ctrls0.bw_write::writebacks      321705109                       # Write bandwidth from this memory (bytes/s)
system.mem_ctrls0.bw_write::total           321705109                       # Write bandwidth from this memory (bytes/s)
system.mem_ctrls0.bw_total::writebacks      321705109                       # Total bandwidth to/from this memory (bytes/s)
system.mem_ctrls0.bw_total::switch_cpus0.inst    319719275                       # Total bandwidth to/from this memory (bytes/s)
system.mem_ctrls0.bw_total::switch_cpus0.data    113914660                       # Total bandwidth to/from this memory (bytes/s)
system.mem_ctrls0.bw_total::switch_cpus1.inst     31412283                       # Total bandwidth to/from this memory (bytes/s)
system.mem_ctrls0.bw_total::switch_cpus1.data     88279348                       # Total bandwidth to/from this memory (bytes/s)
system.mem_ctrls0.bw_total::switch_cpus3.inst    278377822                       # Total bandwidth to/from this memory (bytes/s)
system.mem_ctrls0.bw_total::switch_cpus3.data    695583494                       # Total bandwidth to/from this memory (bytes/s)
system.mem_ctrls0.bw_total::total          1848991992                       # Total bandwidth to/from this memory (bytes/s)
system.mem_ctrls0.readReqs                          0                       # Number of read requests accepted
system.mem_ctrls0.writeReqs                         0                       # Number of write requests accepted
system.mem_ctrls0.readBursts                        0                       # Number of DRAM read bursts, including those serviced by the write queue
system.mem_ctrls0.writeBursts                       0                       # Number of DRAM write bursts, including those merged in the write queue
system.mem_ctrls0.bytesReadDRAM                     0                       # Total number of bytes read from DRAM
system.mem_ctrls0.bytesReadWrQ                      0                       # Total number of bytes read from write queue
system.mem_ctrls0.bytesWritten                      0                       # Total number of bytes written to DRAM
system.mem_ctrls0.bytesReadSys                      0                       # Total read bytes from the system interface side
system.mem_ctrls0.bytesWrittenSys                   0                       # Total written bytes from the system interface side
system.mem_ctrls0.servicedByWrQ                     0                       # Number of DRAM read bursts serviced by the write queue
system.mem_ctrls0.mergedWrBursts                    0                       # Number of DRAM write bursts merged with an existing one
system.mem_ctrls0.neitherReadNorWriteReqs            0                       # Number of requests that are neither read nor write
system.mem_ctrls0.perBankRdBursts::0                0                       # Per bank write bursts
system.mem_ctrls0.perBankRdBursts::1                0                       # Per bank write bursts
system.mem_ctrls0.perBankRdBursts::2                0                       # Per bank write bursts
system.mem_ctrls0.perBankRdBursts::3                0                       # Per bank write bursts
system.mem_ctrls0.perBankRdBursts::4                0                       # Per bank write bursts
system.mem_ctrls0.perBankRdBursts::5                0                       # Per bank write bursts
system.mem_ctrls0.perBankRdBursts::6                0                       # Per bank write bursts
system.mem_ctrls0.perBankRdBursts::7                0                       # Per bank write bursts
system.mem_ctrls0.perBankRdBursts::8                0                       # Per bank write bursts
system.mem_ctrls0.perBankRdBursts::9                0                       # Per bank write bursts
system.mem_ctrls0.perBankRdBursts::10               0                       # Per bank write bursts
system.mem_ctrls0.perBankRdBursts::11               0                       # Per bank write bursts
system.mem_ctrls0.perBankRdBursts::12               0                       # Per bank write bursts
system.mem_ctrls0.perBankRdBursts::13               0                       # Per bank write bursts
system.mem_ctrls0.perBankRdBursts::14               0                       # Per bank write bursts
system.mem_ctrls0.perBankRdBursts::15               0                       # Per bank write bursts
system.mem_ctrls0.perBankWrBursts::0                0                       # Per bank write bursts
system.mem_ctrls0.perBankWrBursts::1                0                       # Per bank write bursts
system.mem_ctrls0.perBankWrBursts::2                0                       # Per bank write bursts
system.mem_ctrls0.perBankWrBursts::3                0                       # Per bank write bursts
system.mem_ctrls0.perBankWrBursts::4                0                       # Per bank write bursts
system.mem_ctrls0.perBankWrBursts::5                0                       # Per bank write bursts
system.mem_ctrls0.perBankWrBursts::6                0                       # Per bank write bursts
system.mem_ctrls0.perBankWrBursts::7                0                       # Per bank write bursts
system.mem_ctrls0.perBankWrBursts::8                0                       # Per bank write bursts
system.mem_ctrls0.perBankWrBursts::9                0                       # Per bank write bursts
system.mem_ctrls0.perBankWrBursts::10               0                       # Per bank write bursts
system.mem_ctrls0.perBankWrBursts::11               0                       # Per bank write bursts
system.mem_ctrls0.perBankWrBursts::12               0                       # Per bank write bursts
system.mem_ctrls0.perBankWrBursts::13               0                       # Per bank write bursts
system.mem_ctrls0.perBankWrBursts::14               0                       # Per bank write bursts
system.mem_ctrls0.perBankWrBursts::15               0                       # Per bank write bursts
system.mem_ctrls0.numRdRetry                        0                       # Number of times read queue was full causing retry
system.mem_ctrls0.numWrRetry                        0                       # Number of times write queue was full causing retry
system.mem_ctrls0.totGap                            0                       # Total gap between requests
system.mem_ctrls0.readPktSize::0                    0                       # Read request sizes (log2)
system.mem_ctrls0.readPktSize::1                    0                       # Read request sizes (log2)
system.mem_ctrls0.readPktSize::2                    0                       # Read request sizes (log2)
system.mem_ctrls0.readPktSize::3                    0                       # Read request sizes (log2)
system.mem_ctrls0.readPktSize::4                    0                       # Read request sizes (log2)
system.mem_ctrls0.readPktSize::5                    0                       # Read request sizes (log2)
system.mem_ctrls0.readPktSize::6                    0                       # Read request sizes (log2)
system.mem_ctrls0.writePktSize::0                   0                       # Write request sizes (log2)
system.mem_ctrls0.writePktSize::1                   0                       # Write request sizes (log2)
system.mem_ctrls0.writePktSize::2                   0                       # Write request sizes (log2)
system.mem_ctrls0.writePktSize::3                   0                       # Write request sizes (log2)
system.mem_ctrls0.writePktSize::4                   0                       # Write request sizes (log2)
system.mem_ctrls0.writePktSize::5                   0                       # Write request sizes (log2)
system.mem_ctrls0.writePktSize::6                   0                       # Write request sizes (log2)
system.mem_ctrls0.rdQLenPdf::0                      0                       # What read queue length does an incoming req see
system.mem_ctrls0.rdQLenPdf::1                      0                       # What read queue length does an incoming req see
system.mem_ctrls0.rdQLenPdf::2                      0                       # What read queue length does an incoming req see
system.mem_ctrls0.rdQLenPdf::3                      0                       # What read queue length does an incoming req see
system.mem_ctrls0.rdQLenPdf::4                      0                       # What read queue length does an incoming req see
system.mem_ctrls0.rdQLenPdf::5                      0                       # What read queue length does an incoming req see
system.mem_ctrls0.rdQLenPdf::6                      0                       # What read queue length does an incoming req see
system.mem_ctrls0.rdQLenPdf::7                      0                       # What read queue length does an incoming req see
system.mem_ctrls0.rdQLenPdf::8                      0                       # What read queue length does an incoming req see
system.mem_ctrls0.rdQLenPdf::9                      0                       # What read queue length does an incoming req see
system.mem_ctrls0.rdQLenPdf::10                     0                       # What read queue length does an incoming req see
system.mem_ctrls0.rdQLenPdf::11                     0                       # What read queue length does an incoming req see
system.mem_ctrls0.rdQLenPdf::12                     0                       # What read queue length does an incoming req see
system.mem_ctrls0.rdQLenPdf::13                     0                       # What read queue length does an incoming req see
system.mem_ctrls0.rdQLenPdf::14                     0                       # What read queue length does an incoming req see
system.mem_ctrls0.rdQLenPdf::15                     0                       # What read queue length does an incoming req see
system.mem_ctrls0.rdQLenPdf::16                     0                       # What read queue length does an incoming req see
system.mem_ctrls0.rdQLenPdf::17                     0                       # What read queue length does an incoming req see
system.mem_ctrls0.rdQLenPdf::18                     0                       # What read queue length does an incoming req see
system.mem_ctrls0.rdQLenPdf::19                     0                       # What read queue length does an incoming req see
system.mem_ctrls0.rdQLenPdf::20                     0                       # What read queue length does an incoming req see
system.mem_ctrls0.rdQLenPdf::21                     0                       # What read queue length does an incoming req see
system.mem_ctrls0.rdQLenPdf::22                     0                       # What read queue length does an incoming req see
system.mem_ctrls0.rdQLenPdf::23                     0                       # What read queue length does an incoming req see
system.mem_ctrls0.rdQLenPdf::24                     0                       # What read queue length does an incoming req see
system.mem_ctrls0.rdQLenPdf::25                     0                       # What read queue length does an incoming req see
system.mem_ctrls0.rdQLenPdf::26                     0                       # What read queue length does an incoming req see
system.mem_ctrls0.rdQLenPdf::27                     0                       # What read queue length does an incoming req see
system.mem_ctrls0.rdQLenPdf::28                     0                       # What read queue length does an incoming req see
system.mem_ctrls0.rdQLenPdf::29                     0                       # What read queue length does an incoming req see
system.mem_ctrls0.rdQLenPdf::30                     0                       # What read queue length does an incoming req see
system.mem_ctrls0.rdQLenPdf::31                     0                       # What read queue length does an incoming req see
system.mem_ctrls0.wrQLenPdf::0                      0                       # What write queue length does an incoming req see
system.mem_ctrls0.wrQLenPdf::1                      0                       # What write queue length does an incoming req see
system.mem_ctrls0.wrQLenPdf::2                      0                       # What write queue length does an incoming req see
system.mem_ctrls0.wrQLenPdf::3                      0                       # What write queue length does an incoming req see
system.mem_ctrls0.wrQLenPdf::4                      0                       # What write queue length does an incoming req see
system.mem_ctrls0.wrQLenPdf::5                      0                       # What write queue length does an incoming req see
system.mem_ctrls0.wrQLenPdf::6                      0                       # What write queue length does an incoming req see
system.mem_ctrls0.wrQLenPdf::7                      0                       # What write queue length does an incoming req see
system.mem_ctrls0.wrQLenPdf::8                      0                       # What write queue length does an incoming req see
system.mem_ctrls0.wrQLenPdf::9                      0                       # What write queue length does an incoming req see
system.mem_ctrls0.wrQLenPdf::10                     0                       # What write queue length does an incoming req see
system.mem_ctrls0.wrQLenPdf::11                     0                       # What write queue length does an incoming req see
system.mem_ctrls0.wrQLenPdf::12                     0                       # What write queue length does an incoming req see
system.mem_ctrls0.wrQLenPdf::13                     0                       # What write queue length does an incoming req see
system.mem_ctrls0.wrQLenPdf::14                     0                       # What write queue length does an incoming req see
system.mem_ctrls0.wrQLenPdf::15                     0                       # What write queue length does an incoming req see
system.mem_ctrls0.wrQLenPdf::16                     0                       # What write queue length does an incoming req see
system.mem_ctrls0.wrQLenPdf::17                     0                       # What write queue length does an incoming req see
system.mem_ctrls0.wrQLenPdf::18                     0                       # What write queue length does an incoming req see
system.mem_ctrls0.wrQLenPdf::19                     0                       # What write queue length does an incoming req see
system.mem_ctrls0.wrQLenPdf::20                     0                       # What write queue length does an incoming req see
system.mem_ctrls0.wrQLenPdf::21                     0                       # What write queue length does an incoming req see
system.mem_ctrls0.wrQLenPdf::22                     0                       # What write queue length does an incoming req see
system.mem_ctrls0.wrQLenPdf::23                     0                       # What write queue length does an incoming req see
system.mem_ctrls0.wrQLenPdf::24                     0                       # What write queue length does an incoming req see
system.mem_ctrls0.wrQLenPdf::25                     0                       # What write queue length does an incoming req see
system.mem_ctrls0.wrQLenPdf::26                     0                       # What write queue length does an incoming req see
system.mem_ctrls0.wrQLenPdf::27                     0                       # What write queue length does an incoming req see
system.mem_ctrls0.wrQLenPdf::28                     0                       # What write queue length does an incoming req see
system.mem_ctrls0.wrQLenPdf::29                     0                       # What write queue length does an incoming req see
system.mem_ctrls0.wrQLenPdf::30                     0                       # What write queue length does an incoming req see
system.mem_ctrls0.wrQLenPdf::31                     0                       # What write queue length does an incoming req see
system.mem_ctrls0.wrQLenPdf::32                     0                       # What write queue length does an incoming req see
system.mem_ctrls0.wrQLenPdf::33                     0                       # What write queue length does an incoming req see
system.mem_ctrls0.wrQLenPdf::34                     0                       # What write queue length does an incoming req see
system.mem_ctrls0.wrQLenPdf::35                     0                       # What write queue length does an incoming req see
system.mem_ctrls0.wrQLenPdf::36                     0                       # What write queue length does an incoming req see
system.mem_ctrls0.wrQLenPdf::37                     0                       # What write queue length does an incoming req see
system.mem_ctrls0.wrQLenPdf::38                     0                       # What write queue length does an incoming req see
system.mem_ctrls0.wrQLenPdf::39                     0                       # What write queue length does an incoming req see
system.mem_ctrls0.wrQLenPdf::40                     0                       # What write queue length does an incoming req see
system.mem_ctrls0.wrQLenPdf::41                     0                       # What write queue length does an incoming req see
system.mem_ctrls0.wrQLenPdf::42                     0                       # What write queue length does an incoming req see
system.mem_ctrls0.wrQLenPdf::43                     0                       # What write queue length does an incoming req see
system.mem_ctrls0.wrQLenPdf::44                     0                       # What write queue length does an incoming req see
system.mem_ctrls0.wrQLenPdf::45                     0                       # What write queue length does an incoming req see
system.mem_ctrls0.wrQLenPdf::46                     0                       # What write queue length does an incoming req see
system.mem_ctrls0.wrQLenPdf::47                     0                       # What write queue length does an incoming req see
system.mem_ctrls0.wrQLenPdf::48                     0                       # What write queue length does an incoming req see
system.mem_ctrls0.wrQLenPdf::49                     0                       # What write queue length does an incoming req see
system.mem_ctrls0.wrQLenPdf::50                     0                       # What write queue length does an incoming req see
system.mem_ctrls0.wrQLenPdf::51                     0                       # What write queue length does an incoming req see
system.mem_ctrls0.wrQLenPdf::52                     0                       # What write queue length does an incoming req see
system.mem_ctrls0.wrQLenPdf::53                     0                       # What write queue length does an incoming req see
system.mem_ctrls0.wrQLenPdf::54                     0                       # What write queue length does an incoming req see
system.mem_ctrls0.wrQLenPdf::55                     0                       # What write queue length does an incoming req see
system.mem_ctrls0.wrQLenPdf::56                     0                       # What write queue length does an incoming req see
system.mem_ctrls0.wrQLenPdf::57                     0                       # What write queue length does an incoming req see
system.mem_ctrls0.wrQLenPdf::58                     0                       # What write queue length does an incoming req see
system.mem_ctrls0.wrQLenPdf::59                     0                       # What write queue length does an incoming req see
system.mem_ctrls0.wrQLenPdf::60                     0                       # What write queue length does an incoming req see
system.mem_ctrls0.wrQLenPdf::61                     0                       # What write queue length does an incoming req see
system.mem_ctrls0.wrQLenPdf::62                     0                       # What write queue length does an incoming req see
system.mem_ctrls0.wrQLenPdf::63                     0                       # What write queue length does an incoming req see
system.mem_ctrls0.totQLat                           0                       # Total ticks spent queuing
system.mem_ctrls0.totMemAccLat                      0                       # Total ticks spent from burst creation until serviced by the DRAM
system.mem_ctrls0.totBusLat                         0                       # Total ticks spent in databus transfers
system.mem_ctrls0.avgQLat                         nan                       # Average queueing delay per DRAM burst
system.mem_ctrls0.avgBusLat                       nan                       # Average bus latency per DRAM burst
system.mem_ctrls0.avgMemAccLat                    nan                       # Average memory access latency per DRAM burst
system.mem_ctrls0.avgRdBW                        0.00                       # Average DRAM read bandwidth in MiByte/s
system.mem_ctrls0.avgWrBW                        0.00                       # Average achieved write bandwidth in MiByte/s
system.mem_ctrls0.avgRdBWSys                     0.00                       # Average system read bandwidth in MiByte/s
system.mem_ctrls0.avgWrBWSys                     0.00                       # Average system write bandwidth in MiByte/s
system.mem_ctrls0.peakBW                     12800.00                       # Theoretical peak bandwidth in MiByte/s
system.mem_ctrls0.busUtil                        0.00                       # Data bus utilization in percentage
system.mem_ctrls0.busUtilRead                    0.00                       # Data bus utilization in percentage for reads
system.mem_ctrls0.busUtilWrite                   0.00                       # Data bus utilization in percentage for writes
system.mem_ctrls0.avgRdQLen                      0.00                       # Average read queue length when enqueuing
system.mem_ctrls0.avgWrQLen                      0.00                       # Average write queue length when enqueuing
system.mem_ctrls0.readRowHits                       0                       # Number of row buffer hits during reads
system.mem_ctrls0.writeRowHits                      0                       # Number of row buffer hits during writes
system.mem_ctrls0.readRowHitRate                  nan                       # Row buffer hit rate for reads
system.mem_ctrls0.writeRowHitRate                 nan                       # Row buffer hit rate for writes
system.mem_ctrls0.avgGap                          nan                       # Average gap between requests
system.mem_ctrls0.pageHitRate                     nan                       # Row buffer hit rate, read and write combined
system.mem_ctrls0_0.actEnergy                       0                       # Energy for activate commands per rank (pJ)
system.mem_ctrls0_0.preEnergy                       0                       # Energy for precharge commands per rank (pJ)
system.mem_ctrls0_0.readEnergy                      0                       # Energy for read commands per rank (pJ)
system.mem_ctrls0_0.writeEnergy                     0                       # Energy for write commands per rank (pJ)
system.mem_ctrls0_0.refreshEnergy                   0                       # Energy for refresh commands per rank (pJ)
system.mem_ctrls0_0.actBackEnergy                   0                       # Energy for active background per rank (pJ)
system.mem_ctrls0_0.preBackEnergy                   0                       # Energy for precharge background per rank (pJ)
system.mem_ctrls0_0.totalEnergy                     0                       # Total energy per rank (pJ)
system.mem_ctrls0_0.averagePower                    0                       # Core power per rank (mW)
system.mem_ctrls0_0.memoryStateTime::IDLE            0                       # Time in different power states
system.mem_ctrls0_0.memoryStateTime::REF            0                       # Time in different power states
system.mem_ctrls0_0.memoryStateTime::PRE_PDN            0                       # Time in different power states
system.mem_ctrls0_0.memoryStateTime::ACT            0                       # Time in different power states
system.mem_ctrls0_0.memoryStateTime::ACT_PDN            0                       # Time in different power states
system.mem_ctrls0_1.actEnergy                       0                       # Energy for activate commands per rank (pJ)
system.mem_ctrls0_1.preEnergy                       0                       # Energy for precharge commands per rank (pJ)
system.mem_ctrls0_1.readEnergy                      0                       # Energy for read commands per rank (pJ)
system.mem_ctrls0_1.writeEnergy                     0                       # Energy for write commands per rank (pJ)
system.mem_ctrls0_1.refreshEnergy                   0                       # Energy for refresh commands per rank (pJ)
system.mem_ctrls0_1.actBackEnergy                   0                       # Energy for active background per rank (pJ)
system.mem_ctrls0_1.preBackEnergy                   0                       # Energy for precharge background per rank (pJ)
system.mem_ctrls0_1.totalEnergy                     0                       # Total energy per rank (pJ)
system.mem_ctrls0_1.averagePower                    0                       # Core power per rank (mW)
system.mem_ctrls0_1.memoryStateTime::IDLE            0                       # Time in different power states
system.mem_ctrls0_1.memoryStateTime::REF            0                       # Time in different power states
system.mem_ctrls0_1.memoryStateTime::PRE_PDN            0                       # Time in different power states
system.mem_ctrls0_1.memoryStateTime::ACT            0                       # Time in different power states
system.mem_ctrls0_1.memoryStateTime::ACT_PDN            0                       # Time in different power states
system.mem_ctrls1.readReqs                          0                       # Number of read requests accepted
system.mem_ctrls1.writeReqs                         0                       # Number of write requests accepted
system.mem_ctrls1.readBursts                        0                       # Number of DRAM read bursts, including those serviced by the write queue
system.mem_ctrls1.writeBursts                       0                       # Number of DRAM write bursts, including those merged in the write queue
system.mem_ctrls1.bytesReadDRAM                     0                       # Total number of bytes read from DRAM
system.mem_ctrls1.bytesReadWrQ                      0                       # Total number of bytes read from write queue
system.mem_ctrls1.bytesWritten                      0                       # Total number of bytes written to DRAM
system.mem_ctrls1.bytesReadSys                      0                       # Total read bytes from the system interface side
system.mem_ctrls1.bytesWrittenSys                   0                       # Total written bytes from the system interface side
system.mem_ctrls1.servicedByWrQ                     0                       # Number of DRAM read bursts serviced by the write queue
system.mem_ctrls1.mergedWrBursts                    0                       # Number of DRAM write bursts merged with an existing one
system.mem_ctrls1.neitherReadNorWriteReqs            0                       # Number of requests that are neither read nor write
system.mem_ctrls1.perBankRdBursts::0                0                       # Per bank write bursts
system.mem_ctrls1.perBankRdBursts::1                0                       # Per bank write bursts
system.mem_ctrls1.perBankRdBursts::2                0                       # Per bank write bursts
system.mem_ctrls1.perBankRdBursts::3                0                       # Per bank write bursts
system.mem_ctrls1.perBankRdBursts::4                0                       # Per bank write bursts
system.mem_ctrls1.perBankRdBursts::5                0                       # Per bank write bursts
system.mem_ctrls1.perBankRdBursts::6                0                       # Per bank write bursts
system.mem_ctrls1.perBankRdBursts::7                0                       # Per bank write bursts
system.mem_ctrls1.perBankRdBursts::8                0                       # Per bank write bursts
system.mem_ctrls1.perBankRdBursts::9                0                       # Per bank write bursts
system.mem_ctrls1.perBankRdBursts::10               0                       # Per bank write bursts
system.mem_ctrls1.perBankRdBursts::11               0                       # Per bank write bursts
system.mem_ctrls1.perBankRdBursts::12               0                       # Per bank write bursts
system.mem_ctrls1.perBankRdBursts::13               0                       # Per bank write bursts
system.mem_ctrls1.perBankRdBursts::14               0                       # Per bank write bursts
system.mem_ctrls1.perBankRdBursts::15               0                       # Per bank write bursts
system.mem_ctrls1.perBankWrBursts::0                0                       # Per bank write bursts
system.mem_ctrls1.perBankWrBursts::1                0                       # Per bank write bursts
system.mem_ctrls1.perBankWrBursts::2                0                       # Per bank write bursts
system.mem_ctrls1.perBankWrBursts::3                0                       # Per bank write bursts
system.mem_ctrls1.perBankWrBursts::4                0                       # Per bank write bursts
system.mem_ctrls1.perBankWrBursts::5                0                       # Per bank write bursts
system.mem_ctrls1.perBankWrBursts::6                0                       # Per bank write bursts
system.mem_ctrls1.perBankWrBursts::7                0                       # Per bank write bursts
system.mem_ctrls1.perBankWrBursts::8                0                       # Per bank write bursts
system.mem_ctrls1.perBankWrBursts::9                0                       # Per bank write bursts
system.mem_ctrls1.perBankWrBursts::10               0                       # Per bank write bursts
system.mem_ctrls1.perBankWrBursts::11               0                       # Per bank write bursts
system.mem_ctrls1.perBankWrBursts::12               0                       # Per bank write bursts
system.mem_ctrls1.perBankWrBursts::13               0                       # Per bank write bursts
system.mem_ctrls1.perBankWrBursts::14               0                       # Per bank write bursts
system.mem_ctrls1.perBankWrBursts::15               0                       # Per bank write bursts
system.mem_ctrls1.numRdRetry                        0                       # Number of times read queue was full causing retry
system.mem_ctrls1.numWrRetry                        0                       # Number of times write queue was full causing retry
system.mem_ctrls1.totGap                            0                       # Total gap between requests
system.mem_ctrls1.readPktSize::0                    0                       # Read request sizes (log2)
system.mem_ctrls1.readPktSize::1                    0                       # Read request sizes (log2)
system.mem_ctrls1.readPktSize::2                    0                       # Read request sizes (log2)
system.mem_ctrls1.readPktSize::3                    0                       # Read request sizes (log2)
system.mem_ctrls1.readPktSize::4                    0                       # Read request sizes (log2)
system.mem_ctrls1.readPktSize::5                    0                       # Read request sizes (log2)
system.mem_ctrls1.readPktSize::6                    0                       # Read request sizes (log2)
system.mem_ctrls1.writePktSize::0                   0                       # Write request sizes (log2)
system.mem_ctrls1.writePktSize::1                   0                       # Write request sizes (log2)
system.mem_ctrls1.writePktSize::2                   0                       # Write request sizes (log2)
system.mem_ctrls1.writePktSize::3                   0                       # Write request sizes (log2)
system.mem_ctrls1.writePktSize::4                   0                       # Write request sizes (log2)
system.mem_ctrls1.writePktSize::5                   0                       # Write request sizes (log2)
system.mem_ctrls1.writePktSize::6                   0                       # Write request sizes (log2)
system.mem_ctrls1.rdQLenPdf::0                      0                       # What read queue length does an incoming req see
system.mem_ctrls1.rdQLenPdf::1                      0                       # What read queue length does an incoming req see
system.mem_ctrls1.rdQLenPdf::2                      0                       # What read queue length does an incoming req see
system.mem_ctrls1.rdQLenPdf::3                      0                       # What read queue length does an incoming req see
system.mem_ctrls1.rdQLenPdf::4                      0                       # What read queue length does an incoming req see
system.mem_ctrls1.rdQLenPdf::5                      0                       # What read queue length does an incoming req see
system.mem_ctrls1.rdQLenPdf::6                      0                       # What read queue length does an incoming req see
system.mem_ctrls1.rdQLenPdf::7                      0                       # What read queue length does an incoming req see
system.mem_ctrls1.rdQLenPdf::8                      0                       # What read queue length does an incoming req see
system.mem_ctrls1.rdQLenPdf::9                      0                       # What read queue length does an incoming req see
system.mem_ctrls1.rdQLenPdf::10                     0                       # What read queue length does an incoming req see
system.mem_ctrls1.rdQLenPdf::11                     0                       # What read queue length does an incoming req see
system.mem_ctrls1.rdQLenPdf::12                     0                       # What read queue length does an incoming req see
system.mem_ctrls1.rdQLenPdf::13                     0                       # What read queue length does an incoming req see
system.mem_ctrls1.rdQLenPdf::14                     0                       # What read queue length does an incoming req see
system.mem_ctrls1.rdQLenPdf::15                     0                       # What read queue length does an incoming req see
system.mem_ctrls1.rdQLenPdf::16                     0                       # What read queue length does an incoming req see
system.mem_ctrls1.rdQLenPdf::17                     0                       # What read queue length does an incoming req see
system.mem_ctrls1.rdQLenPdf::18                     0                       # What read queue length does an incoming req see
system.mem_ctrls1.rdQLenPdf::19                     0                       # What read queue length does an incoming req see
system.mem_ctrls1.rdQLenPdf::20                     0                       # What read queue length does an incoming req see
system.mem_ctrls1.rdQLenPdf::21                     0                       # What read queue length does an incoming req see
system.mem_ctrls1.rdQLenPdf::22                     0                       # What read queue length does an incoming req see
system.mem_ctrls1.rdQLenPdf::23                     0                       # What read queue length does an incoming req see
system.mem_ctrls1.rdQLenPdf::24                     0                       # What read queue length does an incoming req see
system.mem_ctrls1.rdQLenPdf::25                     0                       # What read queue length does an incoming req see
system.mem_ctrls1.rdQLenPdf::26                     0                       # What read queue length does an incoming req see
system.mem_ctrls1.rdQLenPdf::27                     0                       # What read queue length does an incoming req see
system.mem_ctrls1.rdQLenPdf::28                     0                       # What read queue length does an incoming req see
system.mem_ctrls1.rdQLenPdf::29                     0                       # What read queue length does an incoming req see
system.mem_ctrls1.rdQLenPdf::30                     0                       # What read queue length does an incoming req see
system.mem_ctrls1.rdQLenPdf::31                     0                       # What read queue length does an incoming req see
system.mem_ctrls1.wrQLenPdf::0                      0                       # What write queue length does an incoming req see
system.mem_ctrls1.wrQLenPdf::1                      0                       # What write queue length does an incoming req see
system.mem_ctrls1.wrQLenPdf::2                      0                       # What write queue length does an incoming req see
system.mem_ctrls1.wrQLenPdf::3                      0                       # What write queue length does an incoming req see
system.mem_ctrls1.wrQLenPdf::4                      0                       # What write queue length does an incoming req see
system.mem_ctrls1.wrQLenPdf::5                      0                       # What write queue length does an incoming req see
system.mem_ctrls1.wrQLenPdf::6                      0                       # What write queue length does an incoming req see
system.mem_ctrls1.wrQLenPdf::7                      0                       # What write queue length does an incoming req see
system.mem_ctrls1.wrQLenPdf::8                      0                       # What write queue length does an incoming req see
system.mem_ctrls1.wrQLenPdf::9                      0                       # What write queue length does an incoming req see
system.mem_ctrls1.wrQLenPdf::10                     0                       # What write queue length does an incoming req see
system.mem_ctrls1.wrQLenPdf::11                     0                       # What write queue length does an incoming req see
system.mem_ctrls1.wrQLenPdf::12                     0                       # What write queue length does an incoming req see
system.mem_ctrls1.wrQLenPdf::13                     0                       # What write queue length does an incoming req see
system.mem_ctrls1.wrQLenPdf::14                     0                       # What write queue length does an incoming req see
system.mem_ctrls1.wrQLenPdf::15                     0                       # What write queue length does an incoming req see
system.mem_ctrls1.wrQLenPdf::16                     0                       # What write queue length does an incoming req see
system.mem_ctrls1.wrQLenPdf::17                     0                       # What write queue length does an incoming req see
system.mem_ctrls1.wrQLenPdf::18                     0                       # What write queue length does an incoming req see
system.mem_ctrls1.wrQLenPdf::19                     0                       # What write queue length does an incoming req see
system.mem_ctrls1.wrQLenPdf::20                     0                       # What write queue length does an incoming req see
system.mem_ctrls1.wrQLenPdf::21                     0                       # What write queue length does an incoming req see
system.mem_ctrls1.wrQLenPdf::22                     0                       # What write queue length does an incoming req see
system.mem_ctrls1.wrQLenPdf::23                     0                       # What write queue length does an incoming req see
system.mem_ctrls1.wrQLenPdf::24                     0                       # What write queue length does an incoming req see
system.mem_ctrls1.wrQLenPdf::25                     0                       # What write queue length does an incoming req see
system.mem_ctrls1.wrQLenPdf::26                     0                       # What write queue length does an incoming req see
system.mem_ctrls1.wrQLenPdf::27                     0                       # What write queue length does an incoming req see
system.mem_ctrls1.wrQLenPdf::28                     0                       # What write queue length does an incoming req see
system.mem_ctrls1.wrQLenPdf::29                     0                       # What write queue length does an incoming req see
system.mem_ctrls1.wrQLenPdf::30                     0                       # What write queue length does an incoming req see
system.mem_ctrls1.wrQLenPdf::31                     0                       # What write queue length does an incoming req see
system.mem_ctrls1.wrQLenPdf::32                     0                       # What write queue length does an incoming req see
system.mem_ctrls1.wrQLenPdf::33                     0                       # What write queue length does an incoming req see
system.mem_ctrls1.wrQLenPdf::34                     0                       # What write queue length does an incoming req see
system.mem_ctrls1.wrQLenPdf::35                     0                       # What write queue length does an incoming req see
system.mem_ctrls1.wrQLenPdf::36                     0                       # What write queue length does an incoming req see
system.mem_ctrls1.wrQLenPdf::37                     0                       # What write queue length does an incoming req see
system.mem_ctrls1.wrQLenPdf::38                     0                       # What write queue length does an incoming req see
system.mem_ctrls1.wrQLenPdf::39                     0                       # What write queue length does an incoming req see
system.mem_ctrls1.wrQLenPdf::40                     0                       # What write queue length does an incoming req see
system.mem_ctrls1.wrQLenPdf::41                     0                       # What write queue length does an incoming req see
system.mem_ctrls1.wrQLenPdf::42                     0                       # What write queue length does an incoming req see
system.mem_ctrls1.wrQLenPdf::43                     0                       # What write queue length does an incoming req see
system.mem_ctrls1.wrQLenPdf::44                     0                       # What write queue length does an incoming req see
system.mem_ctrls1.wrQLenPdf::45                     0                       # What write queue length does an incoming req see
system.mem_ctrls1.wrQLenPdf::46                     0                       # What write queue length does an incoming req see
system.mem_ctrls1.wrQLenPdf::47                     0                       # What write queue length does an incoming req see
system.mem_ctrls1.wrQLenPdf::48                     0                       # What write queue length does an incoming req see
system.mem_ctrls1.wrQLenPdf::49                     0                       # What write queue length does an incoming req see
system.mem_ctrls1.wrQLenPdf::50                     0                       # What write queue length does an incoming req see
system.mem_ctrls1.wrQLenPdf::51                     0                       # What write queue length does an incoming req see
system.mem_ctrls1.wrQLenPdf::52                     0                       # What write queue length does an incoming req see
system.mem_ctrls1.wrQLenPdf::53                     0                       # What write queue length does an incoming req see
system.mem_ctrls1.wrQLenPdf::54                     0                       # What write queue length does an incoming req see
system.mem_ctrls1.wrQLenPdf::55                     0                       # What write queue length does an incoming req see
system.mem_ctrls1.wrQLenPdf::56                     0                       # What write queue length does an incoming req see
system.mem_ctrls1.wrQLenPdf::57                     0                       # What write queue length does an incoming req see
system.mem_ctrls1.wrQLenPdf::58                     0                       # What write queue length does an incoming req see
system.mem_ctrls1.wrQLenPdf::59                     0                       # What write queue length does an incoming req see
system.mem_ctrls1.wrQLenPdf::60                     0                       # What write queue length does an incoming req see
system.mem_ctrls1.wrQLenPdf::61                     0                       # What write queue length does an incoming req see
system.mem_ctrls1.wrQLenPdf::62                     0                       # What write queue length does an incoming req see
system.mem_ctrls1.wrQLenPdf::63                     0                       # What write queue length does an incoming req see
system.mem_ctrls1.totQLat                           0                       # Total ticks spent queuing
system.mem_ctrls1.totMemAccLat                      0                       # Total ticks spent from burst creation until serviced by the DRAM
system.mem_ctrls1.totBusLat                         0                       # Total ticks spent in databus transfers
system.mem_ctrls1.avgQLat                         nan                       # Average queueing delay per DRAM burst
system.mem_ctrls1.avgBusLat                       nan                       # Average bus latency per DRAM burst
system.mem_ctrls1.avgMemAccLat                    nan                       # Average memory access latency per DRAM burst
system.mem_ctrls1.avgRdBW                        0.00                       # Average DRAM read bandwidth in MiByte/s
system.mem_ctrls1.avgWrBW                        0.00                       # Average achieved write bandwidth in MiByte/s
system.mem_ctrls1.avgRdBWSys                     0.00                       # Average system read bandwidth in MiByte/s
system.mem_ctrls1.avgWrBWSys                     0.00                       # Average system write bandwidth in MiByte/s
system.mem_ctrls1.peakBW                     12800.00                       # Theoretical peak bandwidth in MiByte/s
system.mem_ctrls1.busUtil                        0.00                       # Data bus utilization in percentage
system.mem_ctrls1.busUtilRead                    0.00                       # Data bus utilization in percentage for reads
system.mem_ctrls1.busUtilWrite                   0.00                       # Data bus utilization in percentage for writes
system.mem_ctrls1.avgRdQLen                      0.00                       # Average read queue length when enqueuing
system.mem_ctrls1.avgWrQLen                      0.00                       # Average write queue length when enqueuing
system.mem_ctrls1.readRowHits                       0                       # Number of row buffer hits during reads
system.mem_ctrls1.writeRowHits                      0                       # Number of row buffer hits during writes
system.mem_ctrls1.readRowHitRate                  nan                       # Row buffer hit rate for reads
system.mem_ctrls1.writeRowHitRate                 nan                       # Row buffer hit rate for writes
system.mem_ctrls1.avgGap                          nan                       # Average gap between requests
system.mem_ctrls1.pageHitRate                     nan                       # Row buffer hit rate, read and write combined
system.mem_ctrls1_0.actEnergy                       0                       # Energy for activate commands per rank (pJ)
system.mem_ctrls1_0.preEnergy                       0                       # Energy for precharge commands per rank (pJ)
system.mem_ctrls1_0.readEnergy                      0                       # Energy for read commands per rank (pJ)
system.mem_ctrls1_0.writeEnergy                     0                       # Energy for write commands per rank (pJ)
system.mem_ctrls1_0.refreshEnergy                   0                       # Energy for refresh commands per rank (pJ)
system.mem_ctrls1_0.actBackEnergy                   0                       # Energy for active background per rank (pJ)
system.mem_ctrls1_0.preBackEnergy                   0                       # Energy for precharge background per rank (pJ)
system.mem_ctrls1_0.totalEnergy                     0                       # Total energy per rank (pJ)
system.mem_ctrls1_0.averagePower                    0                       # Core power per rank (mW)
system.mem_ctrls1_0.memoryStateTime::IDLE            0                       # Time in different power states
system.mem_ctrls1_0.memoryStateTime::REF            0                       # Time in different power states
system.mem_ctrls1_0.memoryStateTime::PRE_PDN            0                       # Time in different power states
system.mem_ctrls1_0.memoryStateTime::ACT            0                       # Time in different power states
system.mem_ctrls1_0.memoryStateTime::ACT_PDN            0                       # Time in different power states
system.mem_ctrls1_1.actEnergy                       0                       # Energy for activate commands per rank (pJ)
system.mem_ctrls1_1.preEnergy                       0                       # Energy for precharge commands per rank (pJ)
system.mem_ctrls1_1.readEnergy                      0                       # Energy for read commands per rank (pJ)
system.mem_ctrls1_1.writeEnergy                     0                       # Energy for write commands per rank (pJ)
system.mem_ctrls1_1.refreshEnergy                   0                       # Energy for refresh commands per rank (pJ)
system.mem_ctrls1_1.actBackEnergy                   0                       # Energy for active background per rank (pJ)
system.mem_ctrls1_1.preBackEnergy                   0                       # Energy for precharge background per rank (pJ)
system.mem_ctrls1_1.totalEnergy                     0                       # Total energy per rank (pJ)
system.mem_ctrls1_1.averagePower                    0                       # Core power per rank (mW)
system.mem_ctrls1_1.memoryStateTime::IDLE            0                       # Time in different power states
system.mem_ctrls1_1.memoryStateTime::REF            0                       # Time in different power states
system.mem_ctrls1_1.memoryStateTime::PRE_PDN            0                       # Time in different power states
system.mem_ctrls1_1.memoryStateTime::ACT            0                       # Time in different power states
system.mem_ctrls1_1.memoryStateTime::ACT_PDN            0                       # Time in different power states
system.mem_ctrls2.readReqs                          0                       # Number of read requests accepted
system.mem_ctrls2.writeReqs                         0                       # Number of write requests accepted
system.mem_ctrls2.readBursts                        0                       # Number of DRAM read bursts, including those serviced by the write queue
system.mem_ctrls2.writeBursts                       0                       # Number of DRAM write bursts, including those merged in the write queue
system.mem_ctrls2.bytesReadDRAM                     0                       # Total number of bytes read from DRAM
system.mem_ctrls2.bytesReadWrQ                      0                       # Total number of bytes read from write queue
system.mem_ctrls2.bytesWritten                      0                       # Total number of bytes written to DRAM
system.mem_ctrls2.bytesReadSys                      0                       # Total read bytes from the system interface side
system.mem_ctrls2.bytesWrittenSys                   0                       # Total written bytes from the system interface side
system.mem_ctrls2.servicedByWrQ                     0                       # Number of DRAM read bursts serviced by the write queue
system.mem_ctrls2.mergedWrBursts                    0                       # Number of DRAM write bursts merged with an existing one
system.mem_ctrls2.neitherReadNorWriteReqs            0                       # Number of requests that are neither read nor write
system.mem_ctrls2.perBankRdBursts::0                0                       # Per bank write bursts
system.mem_ctrls2.perBankRdBursts::1                0                       # Per bank write bursts
system.mem_ctrls2.perBankRdBursts::2                0                       # Per bank write bursts
system.mem_ctrls2.perBankRdBursts::3                0                       # Per bank write bursts
system.mem_ctrls2.perBankRdBursts::4                0                       # Per bank write bursts
system.mem_ctrls2.perBankRdBursts::5                0                       # Per bank write bursts
system.mem_ctrls2.perBankRdBursts::6                0                       # Per bank write bursts
system.mem_ctrls2.perBankRdBursts::7                0                       # Per bank write bursts
system.mem_ctrls2.perBankRdBursts::8                0                       # Per bank write bursts
system.mem_ctrls2.perBankRdBursts::9                0                       # Per bank write bursts
system.mem_ctrls2.perBankRdBursts::10               0                       # Per bank write bursts
system.mem_ctrls2.perBankRdBursts::11               0                       # Per bank write bursts
system.mem_ctrls2.perBankRdBursts::12               0                       # Per bank write bursts
system.mem_ctrls2.perBankRdBursts::13               0                       # Per bank write bursts
system.mem_ctrls2.perBankRdBursts::14               0                       # Per bank write bursts
system.mem_ctrls2.perBankRdBursts::15               0                       # Per bank write bursts
system.mem_ctrls2.perBankWrBursts::0                0                       # Per bank write bursts
system.mem_ctrls2.perBankWrBursts::1                0                       # Per bank write bursts
system.mem_ctrls2.perBankWrBursts::2                0                       # Per bank write bursts
system.mem_ctrls2.perBankWrBursts::3                0                       # Per bank write bursts
system.mem_ctrls2.perBankWrBursts::4                0                       # Per bank write bursts
system.mem_ctrls2.perBankWrBursts::5                0                       # Per bank write bursts
system.mem_ctrls2.perBankWrBursts::6                0                       # Per bank write bursts
system.mem_ctrls2.perBankWrBursts::7                0                       # Per bank write bursts
system.mem_ctrls2.perBankWrBursts::8                0                       # Per bank write bursts
system.mem_ctrls2.perBankWrBursts::9                0                       # Per bank write bursts
system.mem_ctrls2.perBankWrBursts::10               0                       # Per bank write bursts
system.mem_ctrls2.perBankWrBursts::11               0                       # Per bank write bursts
system.mem_ctrls2.perBankWrBursts::12               0                       # Per bank write bursts
system.mem_ctrls2.perBankWrBursts::13               0                       # Per bank write bursts
system.mem_ctrls2.perBankWrBursts::14               0                       # Per bank write bursts
system.mem_ctrls2.perBankWrBursts::15               0                       # Per bank write bursts
system.mem_ctrls2.numRdRetry                        0                       # Number of times read queue was full causing retry
system.mem_ctrls2.numWrRetry                        0                       # Number of times write queue was full causing retry
system.mem_ctrls2.totGap                            0                       # Total gap between requests
system.mem_ctrls2.readPktSize::0                    0                       # Read request sizes (log2)
system.mem_ctrls2.readPktSize::1                    0                       # Read request sizes (log2)
system.mem_ctrls2.readPktSize::2                    0                       # Read request sizes (log2)
system.mem_ctrls2.readPktSize::3                    0                       # Read request sizes (log2)
system.mem_ctrls2.readPktSize::4                    0                       # Read request sizes (log2)
system.mem_ctrls2.readPktSize::5                    0                       # Read request sizes (log2)
system.mem_ctrls2.readPktSize::6                    0                       # Read request sizes (log2)
system.mem_ctrls2.writePktSize::0                   0                       # Write request sizes (log2)
system.mem_ctrls2.writePktSize::1                   0                       # Write request sizes (log2)
system.mem_ctrls2.writePktSize::2                   0                       # Write request sizes (log2)
system.mem_ctrls2.writePktSize::3                   0                       # Write request sizes (log2)
system.mem_ctrls2.writePktSize::4                   0                       # Write request sizes (log2)
system.mem_ctrls2.writePktSize::5                   0                       # Write request sizes (log2)
system.mem_ctrls2.writePktSize::6                   0                       # Write request sizes (log2)
system.mem_ctrls2.rdQLenPdf::0                      0                       # What read queue length does an incoming req see
system.mem_ctrls2.rdQLenPdf::1                      0                       # What read queue length does an incoming req see
system.mem_ctrls2.rdQLenPdf::2                      0                       # What read queue length does an incoming req see
system.mem_ctrls2.rdQLenPdf::3                      0                       # What read queue length does an incoming req see
system.mem_ctrls2.rdQLenPdf::4                      0                       # What read queue length does an incoming req see
system.mem_ctrls2.rdQLenPdf::5                      0                       # What read queue length does an incoming req see
system.mem_ctrls2.rdQLenPdf::6                      0                       # What read queue length does an incoming req see
system.mem_ctrls2.rdQLenPdf::7                      0                       # What read queue length does an incoming req see
system.mem_ctrls2.rdQLenPdf::8                      0                       # What read queue length does an incoming req see
system.mem_ctrls2.rdQLenPdf::9                      0                       # What read queue length does an incoming req see
system.mem_ctrls2.rdQLenPdf::10                     0                       # What read queue length does an incoming req see
system.mem_ctrls2.rdQLenPdf::11                     0                       # What read queue length does an incoming req see
system.mem_ctrls2.rdQLenPdf::12                     0                       # What read queue length does an incoming req see
system.mem_ctrls2.rdQLenPdf::13                     0                       # What read queue length does an incoming req see
system.mem_ctrls2.rdQLenPdf::14                     0                       # What read queue length does an incoming req see
system.mem_ctrls2.rdQLenPdf::15                     0                       # What read queue length does an incoming req see
system.mem_ctrls2.rdQLenPdf::16                     0                       # What read queue length does an incoming req see
system.mem_ctrls2.rdQLenPdf::17                     0                       # What read queue length does an incoming req see
system.mem_ctrls2.rdQLenPdf::18                     0                       # What read queue length does an incoming req see
system.mem_ctrls2.rdQLenPdf::19                     0                       # What read queue length does an incoming req see
system.mem_ctrls2.rdQLenPdf::20                     0                       # What read queue length does an incoming req see
system.mem_ctrls2.rdQLenPdf::21                     0                       # What read queue length does an incoming req see
system.mem_ctrls2.rdQLenPdf::22                     0                       # What read queue length does an incoming req see
system.mem_ctrls2.rdQLenPdf::23                     0                       # What read queue length does an incoming req see
system.mem_ctrls2.rdQLenPdf::24                     0                       # What read queue length does an incoming req see
system.mem_ctrls2.rdQLenPdf::25                     0                       # What read queue length does an incoming req see
system.mem_ctrls2.rdQLenPdf::26                     0                       # What read queue length does an incoming req see
system.mem_ctrls2.rdQLenPdf::27                     0                       # What read queue length does an incoming req see
system.mem_ctrls2.rdQLenPdf::28                     0                       # What read queue length does an incoming req see
system.mem_ctrls2.rdQLenPdf::29                     0                       # What read queue length does an incoming req see
system.mem_ctrls2.rdQLenPdf::30                     0                       # What read queue length does an incoming req see
system.mem_ctrls2.rdQLenPdf::31                     0                       # What read queue length does an incoming req see
system.mem_ctrls2.wrQLenPdf::0                      0                       # What write queue length does an incoming req see
system.mem_ctrls2.wrQLenPdf::1                      0                       # What write queue length does an incoming req see
system.mem_ctrls2.wrQLenPdf::2                      0                       # What write queue length does an incoming req see
system.mem_ctrls2.wrQLenPdf::3                      0                       # What write queue length does an incoming req see
system.mem_ctrls2.wrQLenPdf::4                      0                       # What write queue length does an incoming req see
system.mem_ctrls2.wrQLenPdf::5                      0                       # What write queue length does an incoming req see
system.mem_ctrls2.wrQLenPdf::6                      0                       # What write queue length does an incoming req see
system.mem_ctrls2.wrQLenPdf::7                      0                       # What write queue length does an incoming req see
system.mem_ctrls2.wrQLenPdf::8                      0                       # What write queue length does an incoming req see
system.mem_ctrls2.wrQLenPdf::9                      0                       # What write queue length does an incoming req see
system.mem_ctrls2.wrQLenPdf::10                     0                       # What write queue length does an incoming req see
system.mem_ctrls2.wrQLenPdf::11                     0                       # What write queue length does an incoming req see
system.mem_ctrls2.wrQLenPdf::12                     0                       # What write queue length does an incoming req see
system.mem_ctrls2.wrQLenPdf::13                     0                       # What write queue length does an incoming req see
system.mem_ctrls2.wrQLenPdf::14                     0                       # What write queue length does an incoming req see
system.mem_ctrls2.wrQLenPdf::15                     0                       # What write queue length does an incoming req see
system.mem_ctrls2.wrQLenPdf::16                     0                       # What write queue length does an incoming req see
system.mem_ctrls2.wrQLenPdf::17                     0                       # What write queue length does an incoming req see
system.mem_ctrls2.wrQLenPdf::18                     0                       # What write queue length does an incoming req see
system.mem_ctrls2.wrQLenPdf::19                     0                       # What write queue length does an incoming req see
system.mem_ctrls2.wrQLenPdf::20                     0                       # What write queue length does an incoming req see
system.mem_ctrls2.wrQLenPdf::21                     0                       # What write queue length does an incoming req see
system.mem_ctrls2.wrQLenPdf::22                     0                       # What write queue length does an incoming req see
system.mem_ctrls2.wrQLenPdf::23                     0                       # What write queue length does an incoming req see
system.mem_ctrls2.wrQLenPdf::24                     0                       # What write queue length does an incoming req see
system.mem_ctrls2.wrQLenPdf::25                     0                       # What write queue length does an incoming req see
system.mem_ctrls2.wrQLenPdf::26                     0                       # What write queue length does an incoming req see
system.mem_ctrls2.wrQLenPdf::27                     0                       # What write queue length does an incoming req see
system.mem_ctrls2.wrQLenPdf::28                     0                       # What write queue length does an incoming req see
system.mem_ctrls2.wrQLenPdf::29                     0                       # What write queue length does an incoming req see
system.mem_ctrls2.wrQLenPdf::30                     0                       # What write queue length does an incoming req see
system.mem_ctrls2.wrQLenPdf::31                     0                       # What write queue length does an incoming req see
system.mem_ctrls2.wrQLenPdf::32                     0                       # What write queue length does an incoming req see
system.mem_ctrls2.wrQLenPdf::33                     0                       # What write queue length does an incoming req see
system.mem_ctrls2.wrQLenPdf::34                     0                       # What write queue length does an incoming req see
system.mem_ctrls2.wrQLenPdf::35                     0                       # What write queue length does an incoming req see
system.mem_ctrls2.wrQLenPdf::36                     0                       # What write queue length does an incoming req see
system.mem_ctrls2.wrQLenPdf::37                     0                       # What write queue length does an incoming req see
system.mem_ctrls2.wrQLenPdf::38                     0                       # What write queue length does an incoming req see
system.mem_ctrls2.wrQLenPdf::39                     0                       # What write queue length does an incoming req see
system.mem_ctrls2.wrQLenPdf::40                     0                       # What write queue length does an incoming req see
system.mem_ctrls2.wrQLenPdf::41                     0                       # What write queue length does an incoming req see
system.mem_ctrls2.wrQLenPdf::42                     0                       # What write queue length does an incoming req see
system.mem_ctrls2.wrQLenPdf::43                     0                       # What write queue length does an incoming req see
system.mem_ctrls2.wrQLenPdf::44                     0                       # What write queue length does an incoming req see
system.mem_ctrls2.wrQLenPdf::45                     0                       # What write queue length does an incoming req see
system.mem_ctrls2.wrQLenPdf::46                     0                       # What write queue length does an incoming req see
system.mem_ctrls2.wrQLenPdf::47                     0                       # What write queue length does an incoming req see
system.mem_ctrls2.wrQLenPdf::48                     0                       # What write queue length does an incoming req see
system.mem_ctrls2.wrQLenPdf::49                     0                       # What write queue length does an incoming req see
system.mem_ctrls2.wrQLenPdf::50                     0                       # What write queue length does an incoming req see
system.mem_ctrls2.wrQLenPdf::51                     0                       # What write queue length does an incoming req see
system.mem_ctrls2.wrQLenPdf::52                     0                       # What write queue length does an incoming req see
system.mem_ctrls2.wrQLenPdf::53                     0                       # What write queue length does an incoming req see
system.mem_ctrls2.wrQLenPdf::54                     0                       # What write queue length does an incoming req see
system.mem_ctrls2.wrQLenPdf::55                     0                       # What write queue length does an incoming req see
system.mem_ctrls2.wrQLenPdf::56                     0                       # What write queue length does an incoming req see
system.mem_ctrls2.wrQLenPdf::57                     0                       # What write queue length does an incoming req see
system.mem_ctrls2.wrQLenPdf::58                     0                       # What write queue length does an incoming req see
system.mem_ctrls2.wrQLenPdf::59                     0                       # What write queue length does an incoming req see
system.mem_ctrls2.wrQLenPdf::60                     0                       # What write queue length does an incoming req see
system.mem_ctrls2.wrQLenPdf::61                     0                       # What write queue length does an incoming req see
system.mem_ctrls2.wrQLenPdf::62                     0                       # What write queue length does an incoming req see
system.mem_ctrls2.wrQLenPdf::63                     0                       # What write queue length does an incoming req see
system.mem_ctrls2.totQLat                           0                       # Total ticks spent queuing
system.mem_ctrls2.totMemAccLat                      0                       # Total ticks spent from burst creation until serviced by the DRAM
system.mem_ctrls2.totBusLat                         0                       # Total ticks spent in databus transfers
system.mem_ctrls2.avgQLat                         nan                       # Average queueing delay per DRAM burst
system.mem_ctrls2.avgBusLat                       nan                       # Average bus latency per DRAM burst
system.mem_ctrls2.avgMemAccLat                    nan                       # Average memory access latency per DRAM burst
system.mem_ctrls2.avgRdBW                        0.00                       # Average DRAM read bandwidth in MiByte/s
system.mem_ctrls2.avgWrBW                        0.00                       # Average achieved write bandwidth in MiByte/s
system.mem_ctrls2.avgRdBWSys                     0.00                       # Average system read bandwidth in MiByte/s
system.mem_ctrls2.avgWrBWSys                     0.00                       # Average system write bandwidth in MiByte/s
system.mem_ctrls2.peakBW                     12800.00                       # Theoretical peak bandwidth in MiByte/s
system.mem_ctrls2.busUtil                        0.00                       # Data bus utilization in percentage
system.mem_ctrls2.busUtilRead                    0.00                       # Data bus utilization in percentage for reads
system.mem_ctrls2.busUtilWrite                   0.00                       # Data bus utilization in percentage for writes
system.mem_ctrls2.avgRdQLen                      0.00                       # Average read queue length when enqueuing
system.mem_ctrls2.avgWrQLen                      0.00                       # Average write queue length when enqueuing
system.mem_ctrls2.readRowHits                       0                       # Number of row buffer hits during reads
system.mem_ctrls2.writeRowHits                      0                       # Number of row buffer hits during writes
system.mem_ctrls2.readRowHitRate                  nan                       # Row buffer hit rate for reads
system.mem_ctrls2.writeRowHitRate                 nan                       # Row buffer hit rate for writes
system.mem_ctrls2.avgGap                          nan                       # Average gap between requests
system.mem_ctrls2.pageHitRate                     nan                       # Row buffer hit rate, read and write combined
system.mem_ctrls2_0.actEnergy                       0                       # Energy for activate commands per rank (pJ)
system.mem_ctrls2_0.preEnergy                       0                       # Energy for precharge commands per rank (pJ)
system.mem_ctrls2_0.readEnergy                      0                       # Energy for read commands per rank (pJ)
system.mem_ctrls2_0.writeEnergy                     0                       # Energy for write commands per rank (pJ)
system.mem_ctrls2_0.refreshEnergy                   0                       # Energy for refresh commands per rank (pJ)
system.mem_ctrls2_0.actBackEnergy                   0                       # Energy for active background per rank (pJ)
system.mem_ctrls2_0.preBackEnergy                   0                       # Energy for precharge background per rank (pJ)
system.mem_ctrls2_0.totalEnergy                     0                       # Total energy per rank (pJ)
system.mem_ctrls2_0.averagePower                    0                       # Core power per rank (mW)
system.mem_ctrls2_0.memoryStateTime::IDLE            0                       # Time in different power states
system.mem_ctrls2_0.memoryStateTime::REF            0                       # Time in different power states
system.mem_ctrls2_0.memoryStateTime::PRE_PDN            0                       # Time in different power states
system.mem_ctrls2_0.memoryStateTime::ACT            0                       # Time in different power states
system.mem_ctrls2_0.memoryStateTime::ACT_PDN            0                       # Time in different power states
system.mem_ctrls2_1.actEnergy                       0                       # Energy for activate commands per rank (pJ)
system.mem_ctrls2_1.preEnergy                       0                       # Energy for precharge commands per rank (pJ)
system.mem_ctrls2_1.readEnergy                      0                       # Energy for read commands per rank (pJ)
system.mem_ctrls2_1.writeEnergy                     0                       # Energy for write commands per rank (pJ)
system.mem_ctrls2_1.refreshEnergy                   0                       # Energy for refresh commands per rank (pJ)
system.mem_ctrls2_1.actBackEnergy                   0                       # Energy for active background per rank (pJ)
system.mem_ctrls2_1.preBackEnergy                   0                       # Energy for precharge background per rank (pJ)
[...]
system.switch_cpus3.itb.read_hits                   0                       # DTB read hits
system.switch_cpus3.itb.read_misses                 0                       # DTB read misses
system.switch_cpus3.itb.read_acv                    0                       # DTB read access violations
system.switch_cpus3.itb.read_accesses               0                       # DTB read accesses
system.switch_cpus3.itb.write_hits                  0                       # DTB write hits
system.switch_cpus3.itb.write_misses                0                       # DTB write misses
system.switch_cpus3.itb.write_acv                   0                       # DTB write access violations
system.switch_cpus3.itb.write_accesses              0                       # DTB write accesses
system.switch_cpus3.itb.data_hits                   0                       # DTB hits
system.switch_cpus3.itb.data_misses                 0                       # DTB misses
system.switch_cpus3.itb.data_acv                    0                       # DTB access violations
system.switch_cpus3.itb.data_accesses               0                       # DTB accesses
system.switch_cpus3.numCycles               165996842                       # number of cpu cycles simulated
system.switch_cpus3.numWorkItemsStarted             0                       # number of work items this cpu started
system.switch_cpus3.numWorkItemsCompleted            0                       # number of work items this cpu completed
system.switch_cpus3.kern.inst.arm                   0                       # number of arm instructions executed
system.switch_cpus3.kern.inst.quiesce               0                       # number of quiesce instructions executed
system.switch_cpus3.kern.inst.hwrei                 0                       # number of hwrei instructions executed
system.switch_cpus3.kern.mode_switch::kernel            0                       # number of protection mode switches
system.switch_cpus3.kern.mode_switch::user            0                       # number of protection mode switches
system.switch_cpus3.kern.mode_switch::idle            0                       # number of protection mode switches
system.switch_cpus3.kern.mode_good::kernel            0                      
system.switch_cpus3.kern.mode_good::user            0                      
system.switch_cpus3.kern.mode_good::idle            0                      
system.switch_cpus3.kern.mode_switch_good::kernel          nan                       # fraction of useful protection mode switches
system.switch_cpus3.kern.mode_switch_good::user          nan                       # fraction of useful protection mode switches
system.switch_cpus3.kern.mode_switch_good::idle          nan                       # fraction of useful protection mode switches
system.switch_cpus3.kern.mode_switch_good::total          nan                       # fraction of useful protection mode switches
system.switch_cpus3.kern.mode_ticks::kernel            0                       # number of ticks spent at the given mode
system.switch_cpus3.kern.mode_ticks::user            0                       # number of ticks spent at the given mode
system.switch_cpus3.kern.mode_ticks::idle            0                       # number of ticks spent at the given mode
system.switch_cpus3.kern.swap_context               0                       # number of times the context was actually changed
system.switch_cpus3.committedInsts             259186                       # Number of instructions committed
system.switch_cpus3.committedOps               259186                       # Number of ops (including micro ops) committed
system.switch_cpus3.num_int_alu_accesses       248342                       # Number of integer alu accesses
system.switch_cpus3.num_fp_alu_accesses           363                       # Number of float alu accesses
system.switch_cpus3.num_func_calls               7914                       # number of times a function call or return occured
system.switch_cpus3.num_conditional_control_insts        24514                       # number of instructions that are conditional controls
system.switch_cpus3.num_int_insts              248342                       # number of integer instructions
system.switch_cpus3.num_fp_insts                  363                       # number of float instructions
system.switch_cpus3.num_int_register_reads       334058                       # number of times the integer registers were read
system.switch_cpus3.num_int_register_writes       192742                       # number of times the integer registers were written
system.switch_cpus3.num_fp_register_reads          186                       # number of times the floating registers were read
system.switch_cpus3.num_fp_register_writes          189                       # number of times the floating registers were written
system.switch_cpus3.num_mem_refs                81230                       # number of memory refs
system.switch_cpus3.num_load_insts              51996                       # Number of load instructions
system.switch_cpus3.num_store_insts             29234                       # Number of store instructions
system.switch_cpus3.num_idle_cycles      165737868.105001                       # Number of idle cycles
system.switch_cpus3.num_busy_cycles      258973.894999                       # Number of busy cycles
system.switch_cpus3.not_idle_fraction        0.001560                       # Percentage of non-idle cycles
system.switch_cpus3.idle_fraction            0.998440                       # Percentage of idle cycles
system.switch_cpus3.Branches                    36100                       # Number of branches fetched
system.switch_cpus3.op_class::No_OpClass         3597      1.39%      1.39% # Class of executed instruction
system.switch_cpus3.op_class::IntAlu           160146     61.70%     63.08% # Class of executed instruction
system.switch_cpus3.op_class::IntMult             555      0.21%     63.30% # Class of executed instruction
system.switch_cpus3.op_class::IntDiv                0      0.00%     63.30% # Class of executed instruction
system.switch_cpus3.op_class::FloatAdd             26      0.01%     63.31% # Class of executed instruction
system.switch_cpus3.op_class::FloatCmp              0      0.00%     63.31% # Class of executed instruction
system.switch_cpus3.op_class::FloatCvt              0      0.00%     63.31% # Class of executed instruction
system.switch_cpus3.op_class::FloatMult             0      0.00%     63.31% # Class of executed instruction
system.switch_cpus3.op_class::FloatDiv              3      0.00%     63.31% # Class of executed instruction
system.switch_cpus3.op_class::FloatSqrt             0      0.00%     63.31% # Class of executed instruction
system.switch_cpus3.op_class::SimdAdd               0      0.00%     63.31% # Class of executed instruction
system.switch_cpus3.op_class::SimdAddAcc            0      0.00%     63.31% # Class of executed instruction
system.switch_cpus3.op_class::SimdAlu               0      0.00%     63.31% # Class of executed instruction
system.switch_cpus3.op_class::SimdCmp               0      0.00%     63.31% # Class of executed instruction
system.switch_cpus3.op_class::SimdCvt               0      0.00%     63.31% # Class of executed instruction
system.switch_cpus3.op_class::SimdMisc              0      0.00%     63.31% # Class of executed instruction
system.switch_cpus3.op_class::SimdMult              0      0.00%     63.31% # Class of executed instruction
system.switch_cpus3.op_class::SimdMultAcc            0      0.00%     63.31% # Class of executed instruction
system.switch_cpus3.op_class::SimdShift             0      0.00%     63.31% # Class of executed instruction
system.switch_cpus3.op_class::SimdShiftAcc            0      0.00%     63.31% # Class of executed instruction
system.switch_cpus3.op_class::SimdSqrt              0      0.00%     63.31% # Class of executed instruction
system.switch_cpus3.op_class::SimdFloatAdd            0      0.00%     63.31% # Class of executed instruction
system.switch_cpus3.op_class::SimdFloatAlu            0      0.00%     63.31% # Class of executed instruction
system.switch_cpus3.op_class::SimdFloatCmp            0      0.00%     63.31% # Class of executed instruction
system.switch_cpus3.op_class::SimdFloatCvt            0      0.00%     63.31% # Class of executed instruction
system.switch_cpus3.op_class::SimdFloatDiv            0      0.00%     63.31% # Class of executed instruction
system.switch_cpus3.op_class::SimdFloatMisc            0      0.00%     63.31% # Class of executed instruction
system.switch_cpus3.op_class::SimdFloatMult            0      0.00%     63.31% # Class of executed instruction
system.switch_cpus3.op_class::SimdFloatMultAcc            0      0.00%     63.31% # Class of executed instruction
system.switch_cpus3.op_class::SimdFloatSqrt            0      0.00%     63.31% # Class of executed instruction
system.switch_cpus3.op_class::MemRead           53591     20.65%     83.95% # Class of executed instruction
system.switch_cpus3.op_class::MemWrite          29244     11.27%     95.22% # Class of executed instruction
system.switch_cpus3.op_class::IprAccess         12409      4.78%    100.00% # Class of executed instruction
system.switch_cpus3.op_class::InstPrefetch            0      0.00%    100.00% # Class of executed instruction
system.switch_cpus3.op_class::total            259571                       # Class of executed instruction
system.system_bus.trans_dist::ReadReq              10                       # Transaction distribution
system.system_bus.trans_dist::ReadResp        4516822                       # Transaction distribution
system.system_bus.trans_dist::WriteReq            281                       # Transaction distribution
system.system_bus.trans_dist::WriteResp           281                       # Transaction distribution
system.system_bus.trans_dist::WritebackDirty      1135601                       # Transaction distribution
system.system_bus.trans_dist::CleanEvict      3183150                       # Transaction distribution
system.system_bus.trans_dist::UpgradeReq         1413                       # Transaction distribution
system.system_bus.trans_dist::SCUpgradeReq          226                       # Transaction distribution
system.system_bus.trans_dist::UpgradeResp         1639                       # Transaction distribution
system.system_bus.trans_dist::ReadExReq         49069                       # Transaction distribution
system.system_bus.trans_dist::ReadExResp        49069                       # Transaction distribution
system.system_bus.trans_dist::ReadSharedReq      4516812                       # Transaction distribution
system.system_bus.pkt_count_system.numa_caches_downward0.mem_side::system.numa_caches_upward3.cpu_side        25484                       # Packet count per connected master and slave (bytes)
system.system_bus.pkt_count_system.numa_caches_downward0.mem_side::total        25484                       # Packet count per connected master and slave (bytes)
system.system_bus.pkt_count_system.numa_caches_downward1.mem_side::system.numa_caches_upward0.cpu_side          942                       # Packet count per connected master and slave (bytes)
system.system_bus.pkt_count_system.numa_caches_downward1.mem_side::system.numa_caches_upward3.cpu_side          236                       # Packet count per connected master and slave (bytes)
system.system_bus.pkt_count_system.numa_caches_downward1.mem_side::total         1178                       # Packet count per connected master and slave (bytes)
system.system_bus.pkt_count_system.numa_caches_downward2.mem_side::system.numa_caches_upward0.cpu_side      1196730                       # Packet count per connected master and slave (bytes)
system.system_bus.pkt_count_system.numa_caches_downward2.mem_side::system.numa_caches_upward3.cpu_side     12226714                       # Packet count per connected master and slave (bytes)
system.system_bus.pkt_count_system.numa_caches_downward2.mem_side::total     13423444                       # Packet count per connected master and slave (bytes)
system.system_bus.pkt_count_system.numa_caches_downward3.mem_side::system.numa_caches_upward0.cpu_side         4267                       # Packet count per connected master and slave (bytes)
system.system_bus.pkt_count_system.numa_caches_downward3.mem_side::total         4267                       # Packet count per connected master and slave (bytes)
system.system_bus.pkt_count::total           13454373                       # Packet count per connected master and slave (bytes)
system.system_bus.pkt_size_system.numa_caches_downward0.mem_side::system.numa_caches_upward3.cpu_side       783744                       # Cumulative packet size per connected master and slave (bytes)
system.system_bus.pkt_size_system.numa_caches_downward0.mem_side::total       783744                       # Cumulative packet size per connected master and slave (bytes)
system.system_bus.pkt_size_system.numa_caches_downward1.mem_side::system.numa_caches_upward0.cpu_side        20912                       # Cumulative packet size per connected master and slave (bytes)
system.system_bus.pkt_size_system.numa_caches_downward1.mem_side::system.numa_caches_upward3.cpu_side         2880                       # Cumulative packet size per connected master and slave (bytes)
system.system_bus.pkt_size_system.numa_caches_downward1.mem_side::total        23792                       # Cumulative packet size per connected master and slave (bytes)
system.system_bus.pkt_size_system.numa_caches_downward2.mem_side::system.numa_caches_upward0.cpu_side     26206382                       # Cumulative packet size per connected master and slave (bytes)
system.system_bus.pkt_size_system.numa_caches_downward2.mem_side::system.numa_caches_upward3.cpu_side    337764736                       # Cumulative packet size per connected master and slave (bytes)
system.system_bus.pkt_size_system.numa_caches_downward2.mem_side::total    363971118                       # Cumulative packet size per connected master and slave (bytes)
system.system_bus.pkt_size_system.numa_caches_downward3.mem_side::system.numa_caches_upward0.cpu_side       118336                       # Cumulative packet size per connected master and slave (bytes)
system.system_bus.pkt_size_system.numa_caches_downward3.mem_side::total       118336                       # Cumulative packet size per connected master and slave (bytes)
system.system_bus.pkt_size::total           364896990                       # Cumulative packet size per connected master and slave (bytes)
system.system_bus.snoops                      5662726                       # Total snoops (count)
system.system_bus.snoop_fanout::samples      14792738                       # Request fanout histogram
system.system_bus.snoop_fanout::mean         3.382774                       # Request fanout histogram
system.system_bus.snoop_fanout::stdev        0.486064                       # Request fanout histogram
system.system_bus.snoop_fanout::underflows            0      0.00%      0.00% # Request fanout histogram
system.system_bus.snoop_fanout::0                   0      0.00%      0.00% # Request fanout histogram
system.system_bus.snoop_fanout::1                   0      0.00%      0.00% # Request fanout histogram
system.system_bus.snoop_fanout::2                   0      0.00%      0.00% # Request fanout histogram
system.system_bus.snoop_fanout::3             9130456     61.72%     61.72% # Request fanout histogram
system.system_bus.snoop_fanout::4             5662282     38.28%    100.00% # Request fanout histogram
system.system_bus.snoop_fanout::overflows            0      0.00%    100.00% # Request fanout histogram
system.system_bus.snoop_fanout::min_value            3                       # Request fanout histogram
system.system_bus.snoop_fanout::max_value            4                       # Request fanout histogram
system.system_bus.snoop_fanout::total        14792738                       # Request fanout histogram
system.tsunami.ethernet.descDMAReads                0                       # Number of descriptors the device read w/ DMA
system.tsunami.ethernet.descDMAWrites               0                       # Number of descriptors the device wrote w/ DMA
system.tsunami.ethernet.descDmaReadBytes            0                       # number of descriptor bytes read w/ DMA
system.tsunami.ethernet.descDmaWriteBytes            0                       # number of descriptor bytes write w/ DMA
system.tsunami.ethernet.postedSwi                   0                       # number of software interrupts posted to CPU
system.tsunami.ethernet.coalescedSwi              nan                       # average number of Swi's coalesced into each post
system.tsunami.ethernet.totalSwi                    0                       # total number of Swi written to ISR
system.tsunami.ethernet.postedRxIdle                0                       # number of rxIdle interrupts posted to CPU
system.tsunami.ethernet.coalescedRxIdle           nan                       # average number of RxIdle's coalesced into each post
system.tsunami.ethernet.totalRxIdle                 0                       # total number of RxIdle written to ISR
system.tsunami.ethernet.postedRxOk                  0                       # number of RxOk interrupts posted to CPU
system.tsunami.ethernet.coalescedRxOk             nan                       # average number of RxOk's coalesced into each post
system.tsunami.ethernet.totalRxOk                   0                       # total number of RxOk written to ISR
system.tsunami.ethernet.postedRxDesc                0                       # number of RxDesc interrupts posted to CPU
system.tsunami.ethernet.coalescedRxDesc           nan                       # average number of RxDesc's coalesced into each post
system.tsunami.ethernet.totalRxDesc                 0                       # total number of RxDesc written to ISR
system.tsunami.ethernet.postedTxOk                  0                       # number of TxOk interrupts posted to CPU
system.tsunami.ethernet.coalescedTxOk             nan                       # average number of TxOk's coalesced into each post
system.tsunami.ethernet.totalTxOk                   0                       # total number of TxOk written to ISR
system.tsunami.ethernet.postedTxIdle                0                       # number of TxIdle interrupts posted to CPU
system.tsunami.ethernet.coalescedTxIdle           nan                       # average number of TxIdle's coalesced into each post
system.tsunami.ethernet.totalTxIdle                 0                       # total number of TxIdle written to ISR
system.tsunami.ethernet.postedTxDesc                0                       # number of TxDesc interrupts posted to CPU
system.tsunami.ethernet.coalescedTxDesc           nan                       # average number of TxDesc's coalesced into each post
system.tsunami.ethernet.totalTxDesc                 0                       # total number of TxDesc written to ISR
system.tsunami.ethernet.postedRxOrn                 0                       # number of RxOrn posted to CPU
system.tsunami.ethernet.coalescedRxOrn            nan                       # average number of RxOrn's coalesced into each post
system.tsunami.ethernet.totalRxOrn                  0                       # total number of RxOrn written to ISR
system.tsunami.ethernet.coalescedTotal            nan                       # average number of interrupts coalesced into each post
system.tsunami.ethernet.postedInterrupts            0                       # number of posts to CPU
system.tsunami.ethernet.droppedPackets              0                       # number of packets dropped

---------- End Simulation Statistics   ----------
