
---------- Begin Simulation Statistics ----------
sim_seconds                                  0.247099                       # Number of seconds simulated
sim_ticks                                247098722000                       # Number of ticks simulated
final_tick                               247098722000                       # Number of ticks from beginning of simulation (restored from checkpoints and never reset)
sim_freq                                 1000000000000                       # Frequency of simulated ticks
host_inst_rate                                 234370                       # Simulator instruction rate (inst/s)
host_op_rate                                   455050                       # Simulator op (including micro ops) rate (op/s)
host_tick_rate                              193041671                       # Simulator tick rate (ticks/s)
host_mem_usage                                2317512                       # Number of bytes of host memory used
host_seconds                                  1280.03                       # Real time elapsed on the host
sim_insts                                   300000008                       # Number of instructions simulated
sim_ops                                     582477235                       # Number of ops (including micro ops) simulated
system.voltage_domain.voltage                       1                       # Voltage in Volts
system.clk_domain.clock                          1000                       # Clock period in ticks
system.mem_ctrls.bytes_read::cpu.inst             192                       # Number of bytes read from this memory
system.mem_ctrls.bytes_read::cpu.data              64                       # Number of bytes read from this memory
system.mem_ctrls.bytes_read::switch_cpus.inst        25088                       # Number of bytes read from this memory
system.mem_ctrls.bytes_read::switch_cpus.data     11918656                       # Number of bytes read from this memory
system.mem_ctrls.bytes_read::switch_cpus_1.inst         2624                       # Number of bytes read from this memory
system.mem_ctrls.bytes_read::switch_cpus_1.data      7066432                       # Number of bytes read from this memory
system.mem_ctrls.bytes_read::total           19013056                       # Number of bytes read from this memory
system.mem_ctrls.bytes_inst_read::cpu.inst          192                       # Number of instructions bytes read from this memory
system.mem_ctrls.bytes_inst_read::switch_cpus.inst        25088                       # Number of instructions bytes read from this memory
system.mem_ctrls.bytes_inst_read::switch_cpus_1.inst         2624                       # Number of instructions bytes read from this memory
system.mem_ctrls.bytes_inst_read::total         27904                       # Number of instructions bytes read from this memory
system.mem_ctrls.bytes_written::writebacks     10594560                       # Number of bytes written to this memory
system.mem_ctrls.bytes_written::total        10594560                       # Number of bytes written to this memory
system.mem_ctrls.num_reads::cpu.inst                3                       # Number of read requests responded to by this memory
system.mem_ctrls.num_reads::cpu.data                1                       # Number of read requests responded to by this memory
system.mem_ctrls.num_reads::switch_cpus.inst          392                       # Number of read requests responded to by this memory
system.mem_ctrls.num_reads::switch_cpus.data       186229                       # Number of read requests responded to by this memory
system.mem_ctrls.num_reads::switch_cpus_1.inst           41                       # Number of read requests responded to by this memory
system.mem_ctrls.num_reads::switch_cpus_1.data       110413                       # Number of read requests responded to by this memory
system.mem_ctrls.num_reads::total              297079                       # Number of read requests responded to by this memory
system.mem_ctrls.num_writes::writebacks        165540                       # Number of write requests responded to by this memory
system.mem_ctrls.num_writes::total             165540                       # Number of write requests responded to by this memory
system.mem_ctrls.bw_read::cpu.inst                777                       # Total read bandwidth from this memory (bytes/s)
system.mem_ctrls.bw_read::cpu.data                259                       # Total read bandwidth from this memory (bytes/s)
system.mem_ctrls.bw_read::switch_cpus.inst       101530                       # Total read bandwidth from this memory (bytes/s)
system.mem_ctrls.bw_read::switch_cpus.data     48234389                       # Total read bandwidth from this memory (bytes/s)
system.mem_ctrls.bw_read::switch_cpus_1.inst        10619                       # Total read bandwidth from this memory (bytes/s)
system.mem_ctrls.bw_read::switch_cpus_1.data     28597606                       # Total read bandwidth from this memory (bytes/s)
system.mem_ctrls.bw_read::total              76945181                       # Total read bandwidth from this memory (bytes/s)
system.mem_ctrls.bw_inst_read::cpu.inst           777                       # Instruction read bandwidth from this memory (bytes/s)
system.mem_ctrls.bw_inst_read::switch_cpus.inst       101530                       # Instruction read bandwidth from this memory (bytes/s)
system.mem_ctrls.bw_inst_read::switch_cpus_1.inst        10619                       # Instruction read bandwidth from this memory (bytes/s)
system.mem_ctrls.bw_inst_read::total           112927                       # Instruction read bandwidth from this memory (bytes/s)
system.mem_ctrls.bw_write::writebacks        42875819                       # Write bandwidth from this memory (bytes/s)
system.mem_ctrls.bw_write::total             42875819                       # Write bandwidth from this memory (bytes/s)
system.mem_ctrls.bw_total::writebacks        42875819                       # Total bandwidth to/from this memory (bytes/s)
system.mem_ctrls.bw_total::cpu.inst               777                       # Total bandwidth to/from this memory (bytes/s)
system.mem_ctrls.bw_total::cpu.data               259                       # Total bandwidth to/from this memory (bytes/s)
system.mem_ctrls.bw_total::switch_cpus.inst       101530                       # Total bandwidth to/from this memory (bytes/s)
system.mem_ctrls.bw_total::switch_cpus.data     48234389                       # Total bandwidth to/from this memory (bytes/s)
system.mem_ctrls.bw_total::switch_cpus_1.inst        10619                       # Total bandwidth to/from this memory (bytes/s)
system.mem_ctrls.bw_total::switch_cpus_1.data     28597606                       # Total bandwidth to/from this memory (bytes/s)
system.mem_ctrls.bw_total::total            119821000                       # Total bandwidth to/from this memory (bytes/s)
system.mem_ctrls.readReqs                      297079                       # Number of read requests accepted
system.mem_ctrls.writeReqs                     165540                       # Number of write requests accepted
system.mem_ctrls.readBursts                    297079                       # Number of DRAM read bursts, including those serviced by the write queue
system.mem_ctrls.writeBursts                   165540                       # Number of DRAM write bursts, including those merged in the write queue
system.mem_ctrls.bytesReadDRAM               19012608                       # Total number of bytes read from DRAM
system.mem_ctrls.bytesReadWrQ                     448                       # Total number of bytes read from write queue
system.mem_ctrls.bytesWritten                10592896                       # Total number of bytes written to DRAM
system.mem_ctrls.bytesReadSys                19013056                       # Total read bytes from the system interface side
system.mem_ctrls.bytesWrittenSys             10594560                       # Total written bytes from the system interface side
system.mem_ctrls.servicedByWrQ                      7                       # Number of DRAM read bursts serviced by the write queue
system.mem_ctrls.mergedWrBursts                     0                       # Number of DRAM write bursts merged with an existing one
system.mem_ctrls.neitherReadNorWriteReqs           92                       # Number of requests that are neither read nor write
system.mem_ctrls.perBankRdBursts::0             18548                       # Per bank write bursts
system.mem_ctrls.perBankRdBursts::1             18510                       # Per bank write bursts
system.mem_ctrls.perBankRdBursts::2             18495                       # Per bank write bursts
system.mem_ctrls.perBankRdBursts::3             18595                       # Per bank write bursts
system.mem_ctrls.perBankRdBursts::4             18641                       # Per bank write bursts
system.mem_ctrls.perBankRdBursts::5             18600                       # Per bank write bursts
system.mem_ctrls.perBankRdBursts::6             18618                       # Per bank write bursts
system.mem_ctrls.perBankRdBursts::7             18670                       # Per bank write bursts
system.mem_ctrls.perBankRdBursts::8             18598                       # Per bank write bursts
system.mem_ctrls.perBankRdBursts::9             18557                       # Per bank write bursts
system.mem_ctrls.perBankRdBursts::10            18540                       # Per bank write bursts
system.mem_ctrls.perBankRdBursts::11            18612                       # Per bank write bursts
system.mem_ctrls.perBankRdBursts::12            18571                       # Per bank write bursts
system.mem_ctrls.perBankRdBursts::13            18566                       # Per bank write bursts
system.mem_ctrls.perBankRdBursts::14            18477                       # Per bank write bursts
system.mem_ctrls.perBankRdBursts::15            18474                       # Per bank write bursts
system.mem_ctrls.perBankWrBursts::0             10262                       # Per bank write bursts
system.mem_ctrls.perBankWrBursts::1             10277                       # Per bank write bursts
system.mem_ctrls.perBankWrBursts::2             10262                       # Per bank write bursts
system.mem_ctrls.perBankWrBursts::3             10386                       # Per bank write bursts
system.mem_ctrls.perBankWrBursts::4             10394                       # Per bank write bursts
system.mem_ctrls.perBankWrBursts::5             10397                       # Per bank write bursts
system.mem_ctrls.perBankWrBursts::6             10415                       # Per bank write bursts
system.mem_ctrls.perBankWrBursts::7             10413                       # Per bank write bursts
system.mem_ctrls.perBankWrBursts::8             10381                       # Per bank write bursts
system.mem_ctrls.perBankWrBursts::9             10343                       # Per bank write bursts
system.mem_ctrls.perBankWrBursts::10            10319                       # Per bank write bursts
system.mem_ctrls.perBankWrBursts::11            10415                       # Per bank write bursts
system.mem_ctrls.perBankWrBursts::12            10372                       # Per bank write bursts
system.mem_ctrls.perBankWrBursts::13            10371                       # Per bank write bursts
system.mem_ctrls.perBankWrBursts::14            10259                       # Per bank write bursts
system.mem_ctrls.perBankWrBursts::15            10248                       # Per bank write bursts
system.mem_ctrls.numRdRetry                         0                       # Number of times read queue was full causing retry
system.mem_ctrls.numWrRetry                         0                       # Number of times write queue was full causing retry
system.mem_ctrls.totGap                  247098553500                       # Total gap between requests
system.mem_ctrls.readPktSize::0                     0                       # Read request sizes (log2)
system.mem_ctrls.readPktSize::1                     0                       # Read request sizes (log2)
system.mem_ctrls.readPktSize::2                     0                       # Read request sizes (log2)
system.mem_ctrls.readPktSize::3                     0                       # Read request sizes (log2)
system.mem_ctrls.readPktSize::4                     0                       # Read request sizes (log2)
system.mem_ctrls.readPktSize::5                     0                       # Read request sizes (log2)
system.mem_ctrls.readPktSize::6                297079                       # Read request sizes (log2)
system.mem_ctrls.writePktSize::0                    0                       # Write request sizes (log2)
system.mem_ctrls.writePktSize::1                    0                       # Write request sizes (log2)
system.mem_ctrls.writePktSize::2                    0                       # Write request sizes (log2)
system.mem_ctrls.writePktSize::3                    0                       # Write request sizes (log2)
system.mem_ctrls.writePktSize::4                    0                       # Write request sizes (log2)
system.mem_ctrls.writePktSize::5                    0                       # Write request sizes (log2)
system.mem_ctrls.writePktSize::6               165540                       # Write request sizes (log2)
system.mem_ctrls.rdQLenPdf::0                  278788                       # What read queue length does an incoming req see
system.mem_ctrls.rdQLenPdf::1                   15119                       # What read queue length does an incoming req see
system.mem_ctrls.rdQLenPdf::2                    3165                       # What read queue length does an incoming req see
system.mem_ctrls.rdQLenPdf::3                       0                       # What read queue length does an incoming req see
system.mem_ctrls.rdQLenPdf::4                       0                       # What read queue length does an incoming req see
system.mem_ctrls.rdQLenPdf::5                       0                       # What read queue length does an incoming req see
system.mem_ctrls.rdQLenPdf::6                       0                       # What read queue length does an incoming req see
system.mem_ctrls.rdQLenPdf::7                       0                       # What read queue length does an incoming req see
system.mem_ctrls.rdQLenPdf::8                       0                       # What read queue length does an incoming req see
system.mem_ctrls.rdQLenPdf::9                       0                       # What read queue length does an incoming req see
system.mem_ctrls.rdQLenPdf::10                      0                       # What read queue length does an incoming req see
system.mem_ctrls.rdQLenPdf::11                      0                       # What read queue length does an incoming req see
system.mem_ctrls.rdQLenPdf::12                      0                       # What read queue length does an incoming req see
system.mem_ctrls.rdQLenPdf::13                      0                       # What read queue length does an incoming req see
system.mem_ctrls.rdQLenPdf::14                      0                       # What read queue length does an incoming req see
system.mem_ctrls.rdQLenPdf::15                      0                       # What read queue length does an incoming req see
system.mem_ctrls.rdQLenPdf::16                      0                       # What read queue length does an incoming req see
system.mem_ctrls.rdQLenPdf::17                      0                       # What read queue length does an incoming req see
system.mem_ctrls.rdQLenPdf::18                      0                       # What read queue length does an incoming req see
system.mem_ctrls.rdQLenPdf::19                      0                       # What read queue length does an incoming req see
system.mem_ctrls.rdQLenPdf::20                      0                       # What read queue length does an incoming req see
system.mem_ctrls.rdQLenPdf::21                      0                       # What read queue length does an incoming req see
system.mem_ctrls.rdQLenPdf::22                      0                       # What read queue length does an incoming req see
system.mem_ctrls.rdQLenPdf::23                      0                       # What read queue length does an incoming req see
system.mem_ctrls.rdQLenPdf::24                      0                       # What read queue length does an incoming req see
system.mem_ctrls.rdQLenPdf::25                      0                       # What read queue length does an incoming req see
system.mem_ctrls.rdQLenPdf::26                      0                       # What read queue length does an incoming req see
system.mem_ctrls.rdQLenPdf::27                      0                       # What read queue length does an incoming req see
system.mem_ctrls.rdQLenPdf::28                      0                       # What read queue length does an incoming req see
system.mem_ctrls.rdQLenPdf::29                      0                       # What read queue length does an incoming req see
system.mem_ctrls.rdQLenPdf::30                      0                       # What read queue length does an incoming req see
system.mem_ctrls.rdQLenPdf::31                      0                       # What read queue length does an incoming req see
system.mem_ctrls.wrQLenPdf::0                       2                       # What write queue length does an incoming req see
system.mem_ctrls.wrQLenPdf::1                       2                       # What write queue length does an incoming req see
system.mem_ctrls.wrQLenPdf::2                       2                       # What write queue length does an incoming req see
system.mem_ctrls.wrQLenPdf::3                       2                       # What write queue length does an incoming req see
system.mem_ctrls.wrQLenPdf::4                       2                       # What write queue length does an incoming req see
system.mem_ctrls.wrQLenPdf::5                       2                       # What write queue length does an incoming req see
system.mem_ctrls.wrQLenPdf::6                       2                       # What write queue length does an incoming req see
system.mem_ctrls.wrQLenPdf::7                       2                       # What write queue length does an incoming req see
system.mem_ctrls.wrQLenPdf::8                       2                       # What write queue length does an incoming req see
system.mem_ctrls.wrQLenPdf::9                       2                       # What write queue length does an incoming req see
system.mem_ctrls.wrQLenPdf::10                      2                       # What write queue length does an incoming req see
system.mem_ctrls.wrQLenPdf::11                      2                       # What write queue length does an incoming req see
system.mem_ctrls.wrQLenPdf::12                      2                       # What write queue length does an incoming req see
system.mem_ctrls.wrQLenPdf::13                      2                       # What write queue length does an incoming req see
system.mem_ctrls.wrQLenPdf::14                      2                       # What write queue length does an incoming req see
system.mem_ctrls.wrQLenPdf::15                   7838                       # What write queue length does an incoming req see
system.mem_ctrls.wrQLenPdf::16                   7840                       # What write queue length does an incoming req see
system.mem_ctrls.wrQLenPdf::17                   9109                       # What write queue length does an incoming req see
system.mem_ctrls.wrQLenPdf::18                   9286                       # What write queue length does an incoming req see
system.mem_ctrls.wrQLenPdf::19                   9286                       # What write queue length does an incoming req see
system.mem_ctrls.wrQLenPdf::20                   9290                       # What write queue length does an incoming req see
system.mem_ctrls.wrQLenPdf::21                   9301                       # What write queue length does an incoming req see
system.mem_ctrls.wrQLenPdf::22                   9310                       # What write queue length does an incoming req see
system.mem_ctrls.wrQLenPdf::23                   9299                       # What write queue length does an incoming req see
system.mem_ctrls.wrQLenPdf::24                   9303                       # What write queue length does an incoming req see
system.mem_ctrls.wrQLenPdf::25                   9299                       # What write queue length does an incoming req see
system.mem_ctrls.wrQLenPdf::26                   9290                       # What write queue length does an incoming req see
system.mem_ctrls.wrQLenPdf::27                   9431                       # What write queue length does an incoming req see
system.mem_ctrls.wrQLenPdf::28                   9468                       # What write queue length does an incoming req see
system.mem_ctrls.wrQLenPdf::29                   9812                       # What write queue length does an incoming req see
system.mem_ctrls.wrQLenPdf::30                   9562                       # What write queue length does an incoming req see
system.mem_ctrls.wrQLenPdf::31                   9488                       # What write queue length does an incoming req see
system.mem_ctrls.wrQLenPdf::32                   9285                       # What write queue length does an incoming req see
system.mem_ctrls.wrQLenPdf::33                     10                       # What write queue length does an incoming req see
system.mem_ctrls.wrQLenPdf::34                      3                       # What write queue length does an incoming req see
system.mem_ctrls.wrQLenPdf::35                      0                       # What write queue length does an incoming req see
system.mem_ctrls.wrQLenPdf::36                      0                       # What write queue length does an incoming req see
system.mem_ctrls.wrQLenPdf::37                      0                       # What write queue length does an incoming req see
system.mem_ctrls.wrQLenPdf::38                      0                       # What write queue length does an incoming req see
system.mem_ctrls.wrQLenPdf::39                      0                       # What write queue length does an incoming req see
system.mem_ctrls.wrQLenPdf::40                      0                       # What write queue length does an incoming req see
system.mem_ctrls.wrQLenPdf::41                      0                       # What write queue length does an incoming req see
system.mem_ctrls.wrQLenPdf::42                      0                       # What write queue length does an incoming req see
system.mem_ctrls.wrQLenPdf::43                      0                       # What write queue length does an incoming req see
system.mem_ctrls.wrQLenPdf::44                      0                       # What write queue length does an incoming req see
system.mem_ctrls.wrQLenPdf::45                      0                       # What write queue length does an incoming req see
system.mem_ctrls.wrQLenPdf::46                      0                       # What write queue length does an incoming req see
system.mem_ctrls.wrQLenPdf::47                      0                       # What write queue length does an incoming req see
system.mem_ctrls.wrQLenPdf::48                      0                       # What write queue length does an incoming req see
system.mem_ctrls.wrQLenPdf::49                      0                       # What write queue length does an incoming req see
system.mem_ctrls.wrQLenPdf::50                      0                       # What write queue length does an incoming req see
system.mem_ctrls.wrQLenPdf::51                      0                       # What write queue length does an incoming req see
system.mem_ctrls.wrQLenPdf::52                      0                       # What write queue length does an incoming req see
system.mem_ctrls.wrQLenPdf::53                      0                       # What write queue length does an incoming req see
system.mem_ctrls.wrQLenPdf::54                      0                       # What write queue length does an incoming req see
system.mem_ctrls.wrQLenPdf::55                      0                       # What write queue length does an incoming req see
system.mem_ctrls.wrQLenPdf::56                      0                       # What write queue length does an incoming req see
system.mem_ctrls.wrQLenPdf::57                      0                       # What write queue length does an incoming req see
system.mem_ctrls.wrQLenPdf::58                      0                       # What write queue length does an incoming req see
system.mem_ctrls.wrQLenPdf::59                      0                       # What write queue length does an incoming req see
system.mem_ctrls.wrQLenPdf::60                      0                       # What write queue length does an incoming req see
system.mem_ctrls.wrQLenPdf::61                      0                       # What write queue length does an incoming req see
system.mem_ctrls.wrQLenPdf::62                      0                       # What write queue length does an incoming req see
system.mem_ctrls.wrQLenPdf::63                      0                       # What write queue length does an incoming req see
system.mem_ctrls.bytesPerActivate::samples       142336                       # Bytes accessed per row activation
system.mem_ctrls.bytesPerActivate::mean    207.995504                       # Bytes accessed per row activation
system.mem_ctrls.bytesPerActivate::gmean   143.858899                       # Bytes accessed per row activation
system.mem_ctrls.bytesPerActivate::stdev   200.589407                       # Bytes accessed per row activation
system.mem_ctrls.bytesPerActivate::0-127        59623     41.89%     41.89% # Bytes accessed per row activation
system.mem_ctrls.bytesPerActivate::128-255        39847     28.00%     69.88% # Bytes accessed per row activation
system.mem_ctrls.bytesPerActivate::256-383        15964     11.22%     81.10% # Bytes accessed per row activation
system.mem_ctrls.bytesPerActivate::384-511        11877      8.34%     89.44% # Bytes accessed per row activation
system.mem_ctrls.bytesPerActivate::512-639         6497      4.56%     94.01% # Bytes accessed per row activation
system.mem_ctrls.bytesPerActivate::640-767         3353      2.36%     96.36% # Bytes accessed per row activation
system.mem_ctrls.bytesPerActivate::768-895         2976      2.09%     98.46% # Bytes accessed per row activation
system.mem_ctrls.bytesPerActivate::896-1023          959      0.67%     99.13% # Bytes accessed per row activation
system.mem_ctrls.bytesPerActivate::1024-1151         1240      0.87%    100.00% # Bytes accessed per row activation
system.mem_ctrls.bytesPerActivate::total       142336                       # Bytes accessed per row activation
system.mem_ctrls.rdPerTurnAround::samples         9284                       # Reads before turning the bus around for writes
system.mem_ctrls.rdPerTurnAround::mean      31.997092                       # Reads before turning the bus around for writes
system.mem_ctrls.rdPerTurnAround::gmean     18.106721                       # Reads before turning the bus around for writes
system.mem_ctrls.rdPerTurnAround::stdev   1317.246764                       # Reads before turning the bus around for writes
system.mem_ctrls.rdPerTurnAround::0-4095         9283     99.99%     99.99% # Reads before turning the bus around for writes
system.mem_ctrls.rdPerTurnAround::122880-126975            1      0.01%    100.00% # Reads before turning the bus around for writes
system.mem_ctrls.rdPerTurnAround::total          9284                       # Reads before turning the bus around for writes
system.mem_ctrls.wrPerTurnAround::samples         9284                       # Writes before turning the bus around for reads
system.mem_ctrls.wrPerTurnAround::mean      17.827876                       # Writes before turning the bus around for reads
system.mem_ctrls.wrPerTurnAround::gmean     17.805382                       # Writes before turning the bus around for reads
system.mem_ctrls.wrPerTurnAround::stdev      0.881968                       # Writes before turning the bus around for reads
system.mem_ctrls.wrPerTurnAround::16             1445     15.56%     15.56% # Writes before turning the bus around for reads
system.mem_ctrls.wrPerTurnAround::17                2      0.02%     15.59% # Writes before turning the bus around for reads
system.mem_ctrls.wrPerTurnAround::18             6742     72.62%     88.21% # Writes before turning the bus around for reads
system.mem_ctrls.wrPerTurnAround::19              904      9.74%     97.94% # Writes before turning the bus around for reads
system.mem_ctrls.wrPerTurnAround::20              185      1.99%     99.94% # Writes before turning the bus around for reads
system.mem_ctrls.wrPerTurnAround::21                5      0.05%     99.99% # Writes before turning the bus around for reads
system.mem_ctrls.wrPerTurnAround::23                1      0.01%    100.00% # Writes before turning the bus around for reads
system.mem_ctrls.wrPerTurnAround::total          9284                       # Writes before turning the bus around for reads
system.mem_ctrls.totQLat                   3322593750                       # Total ticks spent queuing
system.mem_ctrls.totMemAccLat              8892693750                       # Total ticks spent from burst creation until serviced by the DRAM
system.mem_ctrls.totBusLat                 1485360000                       # Total ticks spent in databus transfers
system.mem_ctrls.avgQLat                     11184.47                       # Average queueing delay per DRAM burst
system.mem_ctrls.avgBusLat                    5000.00                       # Average bus latency per DRAM burst
system.mem_ctrls.avgMemAccLat                29934.47                       # Average memory access latency per DRAM burst
system.mem_ctrls.avgRdBW                        76.94                       # Average DRAM read bandwidth in MiByte/s
system.mem_ctrls.avgWrBW                        42.87                       # Average achieved write bandwidth in MiByte/s
system.mem_ctrls.avgRdBWSys                     76.95                       # Average system read bandwidth in MiByte/s
system.mem_ctrls.avgWrBWSys                     42.88                       # Average system write bandwidth in MiByte/s
system.mem_ctrls.peakBW                      12800.00                       # Theoretical peak bandwidth in MiByte/s
system.mem_ctrls.busUtil                         0.94                       # Data bus utilization in percentage
system.mem_ctrls.busUtilRead                     0.60                       # Data bus utilization in percentage for reads
system.mem_ctrls.busUtilWrite                    0.33                       # Data bus utilization in percentage for writes
system.mem_ctrls.avgRdQLen                       1.05                       # Average read queue length when enqueuing
system.mem_ctrls.avgWrQLen                      17.83                       # Average write queue length when enqueuing
system.mem_ctrls.readRowHits                   202619                       # Number of row buffer hits during reads
system.mem_ctrls.writeRowHits                  117629                       # Number of row buffer hits during writes
system.mem_ctrls.readRowHitRate                 68.21                       # Row buffer hit rate for reads
system.mem_ctrls.writeRowHitRate                71.06                       # Row buffer hit rate for writes
system.mem_ctrls.avgGap                     534129.71                       # Average gap between requests
system.mem_ctrls.pageHitRate                    69.23                       # Row buffer hit rate, read and write combined
system.mem_ctrls_0.actEnergy                539874720                       # Energy for activate commands per rank (pJ)
system.mem_ctrls_0.preEnergy                294574500                       # Energy for precharge commands per rank (pJ)
system.mem_ctrls_0.readEnergy              1159672800                       # Energy for read commands per rank (pJ)
system.mem_ctrls_0.writeEnergy              536582880                       # Energy for write commands per rank (pJ)
system.mem_ctrls_0.refreshEnergy          16139151600                       # Energy for refresh commands per rank (pJ)
system.mem_ctrls_0.actBackEnergy          98185883805                       # Energy for active background per rank (pJ)
system.mem_ctrls_0.preBackEnergy          62130174000                       # Energy for precharge background per rank (pJ)
system.mem_ctrls_0.totalEnergy           178985914305                       # Total energy per rank (pJ)
system.mem_ctrls_0.averagePower            724.355148                       # Core power per rank (mW)
system.mem_ctrls_0.memoryStateTime::IDLE 102694264750                       # Time in different power states
system.mem_ctrls_0.memoryStateTime::REF    8251100000                       # Time in different power states
system.mem_ctrls_0.memoryStateTime::PRE_PDN            0                       # Time in different power states
system.mem_ctrls_0.memoryStateTime::ACT  136153120750                       # Time in different power states
system.mem_ctrls_0.memoryStateTime::ACT_PDN            0                       # Time in different power states
system.mem_ctrls_1.actEnergy                536185440                       # Energy for activate commands per rank (pJ)
system.mem_ctrls_1.preEnergy                292561500                       # Energy for precharge commands per rank (pJ)
system.mem_ctrls_1.readEnergy              1157457600                       # Energy for read commands per rank (pJ)
system.mem_ctrls_1.writeEnergy              535947840                       # Energy for write commands per rank (pJ)
system.mem_ctrls_1.refreshEnergy          16139151600                       # Energy for refresh commands per rank (pJ)
system.mem_ctrls_1.actBackEnergy          97622868870                       # Energy for active background per rank (pJ)
system.mem_ctrls_1.preBackEnergy          62624046750                       # Energy for precharge background per rank (pJ)
system.mem_ctrls_1.totalEnergy           178908219600                       # Total energy per rank (pJ)
system.mem_ctrls_1.averagePower            724.040718                       # Core power per rank (mW)
system.mem_ctrls_1.memoryStateTime::IDLE 103514484500                       # Time in different power states
system.mem_ctrls_1.memoryStateTime::REF    8251100000                       # Time in different power states
system.mem_ctrls_1.memoryStateTime::PRE_PDN            0                       # Time in different power states
system.mem_ctrls_1.memoryStateTime::ACT  135331574500                       # Time in different power states
system.mem_ctrls_1.memoryStateTime::ACT_PDN            0                       # Time in different power states
system.cpu.branchPred.lookups                       1                       # Number of BP lookups
system.cpu.branchPred.condPredicted                 1                       # Number of conditional branches predicted
system.cpu.branchPred.condIncorrect                 1                       # Number of conditional branches incorrect
system.cpu.branchPred.BTBLookups                    0                       # Number of BTB lookups
system.cpu.branchPred.BTBHits                       0                       # Number of BTB hits
system.cpu.branchPred.BTBCorrect                    0                       # Number of correct BTB predictions (this stat may not work properly.
system.cpu.branchPred.BTBHitPct                   nan                       # BTB Hit Percentage
system.cpu.branchPred.usedRAS                       0                       # Number of times the RAS was used to get a target.
system.cpu.branchPred.RASInCorrect                  0                       # Number of incorrect RAS predictions.
system.cpu_voltage_domain.voltage                   1                       # Voltage in Volts
system.cpu_clk_domain.clock                       500                       # Clock period in ticks
system.cpu.apic_clk_domain.clock                 8000                       # Clock period in ticks
system.cpu.workload.num_syscalls                  283                       # Number of system calls
system.cpu.numCycles                              358                       # number of cpu cycles simulated
system.cpu.numWorkItemsStarted                      0                       # number of work items this cpu started
system.cpu.numWorkItemsCompleted                    0                       # number of work items this cpu completed
system.cpu.fetch.icacheStallCycles                 43                       # Number of cycles fetch is stalled on an Icache miss
system.cpu.fetch.Insts                             12                       # Number of instructions fetch has processed
system.cpu.fetch.Branches                           1                       # Number of branches that fetch encountered
system.cpu.fetch.Cycles                             3                       # Number of cycles fetch has run and was not squashing or blocked
system.cpu.fetch.SquashCycles                       5                       # Number of cycles fetch has spent squashing
system.cpu.fetch.PendingDrainCycles                 3                       # Number of cycles fetch has spent waiting on pipes to drain
system.cpu.fetch.PendingQuiesceStallCycles            7                       # Number of stall cycles due to pending quiesce instructions
system.cpu.fetch.CacheLines                         4                       # Number of cache lines fetched
system.cpu.fetch.IcacheSquashes                     2                       # Number of outstanding Icache misses that were squashed
system.cpu.fetch.rateDist::samples                 58                       # Number of instructions fetched each cycle (Total)
system.cpu.fetch.rateDist::mean              0.362069                       # Number of instructions fetched each cycle (Total)
system.cpu.fetch.rateDist::stdev             1.597128                       # Number of instructions fetched each cycle (Total)
system.cpu.fetch.rateDist::underflows               0      0.00%      0.00% # Number of instructions fetched each cycle (Total)
system.cpu.fetch.rateDist::0                       55     94.83%     94.83% # Number of instructions fetched each cycle (Total)
system.cpu.fetch.rateDist::1                        0      0.00%     94.83% # Number of instructions fetched each cycle (Total)
system.cpu.fetch.rateDist::2                        0      0.00%     94.83% # Number of instructions fetched each cycle (Total)
system.cpu.fetch.rateDist::3                        0      0.00%     94.83% # Number of instructions fetched each cycle (Total)
system.cpu.fetch.rateDist::4                        0      0.00%     94.83% # Number of instructions fetched each cycle (Total)
system.cpu.fetch.rateDist::5                        1      1.72%     96.55% # Number of instructions fetched each cycle (Total)
system.cpu.fetch.rateDist::6                        0      0.00%     96.55% # Number of instructions fetched each cycle (Total)
system.cpu.fetch.rateDist::7                        0      0.00%     96.55% # Number of instructions fetched each cycle (Total)
system.cpu.fetch.rateDist::8                        2      3.45%    100.00% # Number of instructions fetched each cycle (Total)
system.cpu.fetch.rateDist::overflows                0      0.00%    100.00% # Number of instructions fetched each cycle (Total)
system.cpu.fetch.rateDist::min_value                0                       # Number of instructions fetched each cycle (Total)
system.cpu.fetch.rateDist::max_value                8                       # Number of instructions fetched each cycle (Total)
system.cpu.fetch.rateDist::total                   58                       # Number of instructions fetched each cycle (Total)
system.cpu.fetch.branchRate                  0.002793                       # Number of branch fetches per cycle
system.cpu.fetch.rate                        0.033520                       # Number of inst fetches per cycle
system.cpu.decode.IdleCycles                       52                       # Number of cycles decode is idle
system.cpu.decode.RunCycles                         3                       # Number of cycles decode is running
system.cpu.decode.SquashCycles                      3                       # Number of cycles decode is squashing
system.cpu.decode.DecodedInsts                     21                       # Number of instructions handled by decode
system.cpu.rename.SquashCycles                      3                       # Number of cycles rename is squashing
system.cpu.rename.IdleCycles                       52                       # Number of cycles rename is idle
system.cpu.rename.serializeStallCycles              0                       # count of cycles rename stalled for serializing inst
system.cpu.rename.RunCycles                         3                       # Number of cycles rename is running
system.cpu.rename.RenamedInsts                     21                       # Number of instructions processed by rename
system.cpu.rename.RenamedOperands                  20                       # Number of destination operands rename has renamed
system.cpu.rename.RenameLookups                    38                       # Number of register rename lookups that rename has made
system.cpu.rename.int_rename_lookups               30                       # Number of integer rename lookups
system.cpu.rename.CommittedMaps                     7                       # Number of HB maps that are committed
system.cpu.rename.UndoneMaps                       13                       # Number of HB maps that are undone due to squashing
system.cpu.rename.serializingInsts                  0                       # count of serializing insts renamed
system.cpu.rename.tempSerializingInsts              0                       # count of temporary serializing insts renamed
system.cpu.rename.skidInsts                         0                       # count of insts added to the skid buffer
system.cpu.memDep0.insertedLoads                    1                       # Number of loads inserted to the mem dependence unit.
system.cpu.memDep0.insertedStores                   3                       # Number of stores inserted to the mem dependence unit.
system.cpu.memDep0.conflictingLoads                 0                       # Number of conflicting loads.
system.cpu.memDep0.conflictingStores                0                       # Number of conflicting stores.
system.cpu.iq.iqInstsAdded                         20                       # Number of instructions added to the IQ (excludes non-spec)
system.cpu.iq.iqNonSpecInstsAdded                   1                       # Number of non-speculative instructions added to the IQ
system.cpu.iq.iqInstsIssued                        20                       # Number of instructions issued
system.cpu.iq.iqSquashedInstsExamined              16                       # Number of squashed instructions iterated over during squash; mainly for profiling
system.cpu.iq.iqSquashedNonSpecRemoved              1                       # Number of squashed non-spec instructions that were removed
system.cpu.iq.issued_per_cycle::samples            58                       # Number of insts issued each cycle
system.cpu.iq.issued_per_cycle::mean         0.344828                       # Number of insts issued each cycle
system.cpu.iq.issued_per_cycle::stdev        1.068722                       # Number of insts issued each cycle
system.cpu.iq.issued_per_cycle::underflows            0      0.00%      0.00% # Number of insts issued each cycle
system.cpu.iq.issued_per_cycle::0                  51     87.93%     87.93% # Number of insts issued each cycle
system.cpu.iq.issued_per_cycle::1                   1      1.72%     89.66% # Number of insts issued each cycle
system.cpu.iq.issued_per_cycle::2                   3      5.17%     94.83% # Number of insts issued each cycle
system.cpu.iq.issued_per_cycle::3                   1      1.72%     96.55% # Number of insts issued each cycle
system.cpu.iq.issued_per_cycle::4                   0      0.00%     96.55% # Number of insts issued each cycle
system.cpu.iq.issued_per_cycle::5                   2      3.45%    100.00% # Number of insts issued each cycle
system.cpu.iq.issued_per_cycle::6                   0      0.00%    100.00% # Number of insts issued each cycle
system.cpu.iq.issued_per_cycle::7                   0      0.00%    100.00% # Number of insts issued each cycle
system.cpu.iq.issued_per_cycle::8                   0      0.00%    100.00% # Number of insts issued each cycle
system.cpu.iq.issued_per_cycle::overflows            0      0.00%    100.00% # Number of insts issued each cycle
system.cpu.iq.issued_per_cycle::min_value            0                       # Number of insts issued each cycle
system.cpu.iq.issued_per_cycle::max_value            5                       # Number of insts issued each cycle
system.cpu.iq.issued_per_cycle::total              58                       # Number of insts issued each cycle
system.cpu.iq.fu_full::No_OpClass                   0                       # attempts to use FU when none available
system.cpu.iq.fu_full::IntAlu                       0                       # attempts to use FU when none available
system.cpu.iq.fu_full::IntMult                      0                       # attempts to use FU when none available
system.cpu.iq.fu_full::IntDiv                       0                       # attempts to use FU when none available
system.cpu.iq.fu_full::FloatAdd                     0                       # attempts to use FU when none available
system.cpu.iq.fu_full::FloatCmp                     0                       # attempts to use FU when none available
system.cpu.iq.fu_full::FloatCvt                     0                       # attempts to use FU when none available
system.cpu.iq.fu_full::FloatMult                    0                       # attempts to use FU when none available
system.cpu.iq.fu_full::FloatDiv                     0                       # attempts to use FU when none available
system.cpu.iq.fu_full::FloatSqrt                    0                       # attempts to use FU when none available
system.cpu.iq.fu_full::SimdAdd                      0                       # attempts to use FU when none available
system.cpu.iq.fu_full::SimdAddAcc                   0                       # attempts to use FU when none available
system.cpu.iq.fu_full::SimdAlu                      0                       # attempts to use FU when none available
system.cpu.iq.fu_full::SimdCmp                      0                       # attempts to use FU when none available
system.cpu.iq.fu_full::SimdCvt                      0                       # attempts to use FU when none available
system.cpu.iq.fu_full::SimdMisc                     0                       # attempts to use FU when none available
system.cpu.iq.fu_full::SimdMult                     0                       # attempts to use FU when none available
system.cpu.iq.fu_full::SimdMultAcc                  0                       # attempts to use FU when none available
system.cpu.iq.fu_full::SimdShift                    0                       # attempts to use FU when none available
system.cpu.iq.fu_full::SimdShiftAcc                 0                       # attempts to use FU when none available
system.cpu.iq.fu_full::SimdSqrt                     0                       # attempts to use FU when none available
system.cpu.iq.fu_full::SimdFloatAdd                 0                       # attempts to use FU when none available
system.cpu.iq.fu_full::SimdFloatAlu                 0                       # attempts to use FU when none available
system.cpu.iq.fu_full::SimdFloatCmp                 0                       # attempts to use FU when none available
system.cpu.iq.fu_full::SimdFloatCvt                 0                       # attempts to use FU when none available
system.cpu.iq.fu_full::SimdFloatDiv                 0                       # attempts to use FU when none available
system.cpu.iq.fu_full::SimdFloatMisc                0                       # attempts to use FU when none available
system.cpu.iq.fu_full::SimdFloatMult                0                       # attempts to use FU when none available
system.cpu.iq.fu_full::SimdFloatMultAcc             0                       # attempts to use FU when none available
system.cpu.iq.fu_full::SimdFloatSqrt                0                       # attempts to use FU when none available
system.cpu.iq.fu_full::MemRead                      0                       # attempts to use FU when none available
system.cpu.iq.fu_full::MemWrite                     0                       # attempts to use FU when none available
system.cpu.iq.fu_full::IprAccess                    0                       # attempts to use FU when none available
system.cpu.iq.fu_full::InstPrefetch                 0                       # attempts to use FU when none available
system.cpu.iq.FU_type_0::No_OpClass                 0      0.00%      0.00% # Type of FU issued
system.cpu.iq.FU_type_0::IntAlu                    16     80.00%     80.00% # Type of FU issued
system.cpu.iq.FU_type_0::IntMult                    0      0.00%     80.00% # Type of FU issued
system.cpu.iq.FU_type_0::IntDiv                     0      0.00%     80.00% # Type of FU issued
system.cpu.iq.FU_type_0::FloatAdd                   0      0.00%     80.00% # Type of FU issued
system.cpu.iq.FU_type_0::FloatCmp                   0      0.00%     80.00% # Type of FU issued
system.cpu.iq.FU_type_0::FloatCvt                   0      0.00%     80.00% # Type of FU issued
system.cpu.iq.FU_type_0::FloatMult                  0      0.00%     80.00% # Type of FU issued
system.cpu.iq.FU_type_0::FloatDiv                   0      0.00%     80.00% # Type of FU issued
system.cpu.iq.FU_type_0::FloatSqrt                  0      0.00%     80.00% # Type of FU issued
system.cpu.iq.FU_type_0::SimdAdd                    0      0.00%     80.00% # Type of FU issued
system.cpu.iq.FU_type_0::SimdAddAcc                 0      0.00%     80.00% # Type of FU issued
system.cpu.iq.FU_type_0::SimdAlu                    0      0.00%     80.00% # Type of FU issued
system.cpu.iq.FU_type_0::SimdCmp                    0      0.00%     80.00% # Type of FU issued
system.cpu.iq.FU_type_0::SimdCvt                    0      0.00%     80.00% # Type of FU issued
system.cpu.iq.FU_type_0::SimdMisc                   0      0.00%     80.00% # Type of FU issued
system.cpu.iq.FU_type_0::SimdMult                   0      0.00%     80.00% # Type of FU issued
system.cpu.iq.FU_type_0::SimdMultAcc                0      0.00%     80.00% # Type of FU issued
system.cpu.iq.FU_type_0::SimdShift                  0      0.00%     80.00% # Type of FU issued
system.cpu.iq.FU_type_0::SimdShiftAcc               0      0.00%     80.00% # Type of FU issued
system.cpu.iq.FU_type_0::SimdSqrt                   0      0.00%     80.00% # Type of FU issued
system.cpu.iq.FU_type_0::SimdFloatAdd               0      0.00%     80.00% # Type of FU issued
system.cpu.iq.FU_type_0::SimdFloatAlu               0      0.00%     80.00% # Type of FU issued
system.cpu.iq.FU_type_0::SimdFloatCmp               0      0.00%     80.00% # Type of FU issued
system.cpu.iq.FU_type_0::SimdFloatCvt               0      0.00%     80.00% # Type of FU issued
system.cpu.iq.FU_type_0::SimdFloatDiv               0      0.00%     80.00% # Type of FU issued
system.cpu.iq.FU_type_0::SimdFloatMisc              0      0.00%     80.00% # Type of FU issued
system.cpu.iq.FU_type_0::SimdFloatMult              0      0.00%     80.00% # Type of FU issued
system.cpu.iq.FU_type_0::SimdFloatMultAcc            0      0.00%     80.00% # Type of FU issued
system.cpu.iq.FU_type_0::SimdFloatSqrt              0      0.00%     80.00% # Type of FU issued
system.cpu.iq.FU_type_0::MemRead                    1      5.00%     85.00% # Type of FU issued
system.cpu.iq.FU_type_0::MemWrite                   3     15.00%    100.00% # Type of FU issued
system.cpu.iq.FU_type_0::IprAccess                  0      0.00%    100.00% # Type of FU issued
system.cpu.iq.FU_type_0::InstPrefetch               0      0.00%    100.00% # Type of FU issued
system.cpu.iq.FU_type_0::total                     20                       # Type of FU issued
system.cpu.iq.rate                           0.055866                       # Inst issue rate
system.cpu.iq.fu_busy_cnt                           0                       # FU busy when requested
system.cpu.iq.fu_busy_rate                          0                       # FU busy rate (busy events/executed inst)
system.cpu.iq.int_inst_queue_reads                 98                       # Number of integer instruction queue reads
system.cpu.iq.int_inst_queue_writes                37                       # Number of integer instruction queue writes
system.cpu.iq.int_inst_queue_wakeup_accesses           20                       # Number of integer instruction queue wakeup accesses
system.cpu.iq.fp_inst_queue_reads                   0                       # Number of floating instruction queue reads
system.cpu.iq.fp_inst_queue_writes                  0                       # Number of floating instruction queue writes
system.cpu.iq.fp_inst_queue_wakeup_accesses            0                       # Number of floating instruction queue wakeup accesses
system.cpu.iq.int_alu_accesses                     20                       # Number of integer alu accesses
system.cpu.iq.fp_alu_accesses                       0                       # Number of floating point alu accesses
system.cpu.iew.lsq.thread0.forwLoads                0                       # Number of loads that had data forwarded from stores
system.cpu.iew.lsq.thread0.invAddrLoads             0                       # Number of loads ignored due to an invalid address
system.cpu.iew.lsq.thread0.squashedLoads            0                       # Number of loads squashed
system.cpu.iew.lsq.thread0.ignoredResponses            0                       # Number of memory responses ignored because the instruction is squashed
system.cpu.iew.lsq.thread0.memOrderViolation            0                       # Number of memory ordering violations
system.cpu.iew.lsq.thread0.squashedStores            3                       # Number of stores squashed
system.cpu.iew.lsq.thread0.invAddrSwpfs             0                       # Number of software prefetches ignored due to an invalid address
system.cpu.iew.lsq.thread0.blockedLoads             0                       # Number of blocked loads due to partial load-store forwarding
system.cpu.iew.lsq.thread0.rescheduledLoads            0                       # Number of loads that were rescheduled
system.cpu.iew.lsq.thread0.cacheBlocked             0                       # Number of times an access to memory failed due to the cache being blocked
system.cpu.iew.iewIdleCycles                        0                       # Number of cycles IEW is idle
system.cpu.iew.iewSquashCycles                      3                       # Number of cycles IEW is squashing
system.cpu.iew.iewBlockCycles                       1                       # Number of cycles IEW is blocking
system.cpu.iew.iewUnblockCycles                     0                       # Number of cycles IEW is unblocking
system.cpu.iew.iewDispatchedInsts                  21                       # Number of instructions dispatched to IQ
system.cpu.iew.iewDispSquashedInsts                 0                       # Number of squashed instructions skipped by dispatch
system.cpu.iew.iewDispLoadInsts                     1                       # Number of dispatched load instructions
system.cpu.iew.iewDispStoreInsts                    3                       # Number of dispatched store instructions
system.cpu.iew.iewDispNonSpecInsts                  1                       # Number of dispatched non-speculative instructions
system.cpu.iew.iewIQFullEvents                      0                       # Number of times the IQ has become full, causing a stall
system.cpu.iew.iewLSQFullEvents                     0                       # Number of times the LSQ has become full, causing a stall
system.cpu.iew.memOrderViolationEvents              0                       # Number of memory order violations
system.cpu.iew.predictedTakenIncorrect              0                       # Number of branches that were predicted taken incorrectly
system.cpu.iew.predictedNotTakenIncorrect            1                       # Number of branches that were predicted not taken incorrectly
system.cpu.iew.branchMispredicts                    1                       # Number of branch mispredicts detected at execute
system.cpu.iew.iewExecutedInsts                    20                       # Number of executed instructions
system.cpu.iew.iewExecLoadInsts                     1                       # Number of load instructions executed
system.cpu.iew.iewExecSquashedInsts                 0                       # Number of squashed instructions skipped in execute
system.cpu.iew.exec_swp                             0                       # number of swp insts executed
system.cpu.iew.exec_nop                             0                       # number of nop insts executed
system.cpu.iew.exec_refs                            4                       # number of memory reference insts executed
system.cpu.iew.exec_branches                        1                       # Number of branches executed
system.cpu.iew.exec_stores                          3                       # Number of stores executed
system.cpu.iew.exec_rate                     0.055866                       # Inst execution rate
system.cpu.iew.wb_sent                             20                       # cumulative count of insts sent to commit
system.cpu.iew.wb_count                            20                       # cumulative count of insts written-back
system.cpu.iew.wb_producers                         8                       # num instructions producing a value
system.cpu.iew.wb_consumers                        13                       # num instructions consuming a value
system.cpu.iew.wb_penalized                         0                       # number of instrctions required to write to 'other' IQ
system.cpu.iew.wb_rate                       0.055866                       # insts written-back per cycle
system.cpu.iew.wb_fanout                     0.615385                       # average fanout of values written-back
system.cpu.iew.wb_penalized_rate                    0                       # fraction of instructions written-back that wrote to 'other' IQ
system.cpu.commit.commitSquashedInsts              16                       # The number of squashed insts skipped by commit
system.cpu.commit.branchMispredicts                 1                       # The number of times a branch was mispredicted
system.cpu.commit.committed_per_cycle::samples           54                       # Number of insts commited each cycle
system.cpu.commit.committed_per_cycle::mean     0.092593                       # Number of insts commited each cycle
system.cpu.commit.committed_per_cycle::stdev     0.401343                       # Number of insts commited each cycle
system.cpu.commit.committed_per_cycle::underflows            0      0.00%      0.00% # Number of insts commited each cycle
system.cpu.commit.committed_per_cycle::0           51     94.44%     94.44% # Number of insts commited each cycle
system.cpu.commit.committed_per_cycle::1            1      1.85%     96.30% # Number of insts commited each cycle
system.cpu.commit.committed_per_cycle::2            2      3.70%    100.00% # Number of insts commited each cycle
system.cpu.commit.committed_per_cycle::3            0      0.00%    100.00% # Number of insts commited each cycle
system.cpu.commit.committed_per_cycle::4            0      0.00%    100.00% # Number of insts commited each cycle
system.cpu.commit.committed_per_cycle::5            0      0.00%    100.00% # Number of insts commited each cycle
system.cpu.commit.committed_per_cycle::6            0      0.00%    100.00% # Number of insts commited each cycle
system.cpu.commit.committed_per_cycle::7            0      0.00%    100.00% # Number of insts commited each cycle
system.cpu.commit.committed_per_cycle::8            0      0.00%    100.00% # Number of insts commited each cycle
system.cpu.commit.committed_per_cycle::overflows            0      0.00%    100.00% # Number of insts commited each cycle
system.cpu.commit.committed_per_cycle::min_value            0                       # Number of insts commited each cycle
system.cpu.commit.committed_per_cycle::max_value            2                       # Number of insts commited each cycle
system.cpu.commit.committed_per_cycle::total           54                       # Number of insts commited each cycle
system.cpu.commit.committedInsts                    3                       # Number of instructions committed
system.cpu.commit.committedOps                      5                       # Number of ops (including micro ops) committed
system.cpu.commit.swp_count                         0                       # Number of s/w prefetches committed
system.cpu.commit.refs                              1                       # Number of memory references committed
system.cpu.commit.loads                             1                       # Number of loads committed
system.cpu.commit.membars                           0                       # Number of memory barriers committed
system.cpu.commit.branches                          0                       # Number of branches committed
system.cpu.commit.fp_insts                          0                       # Number of committed floating point instructions.
system.cpu.commit.int_insts                         5                       # Number of committed integer instructions.
system.cpu.commit.function_calls                    0                       # Number of function calls committed.
system.cpu.commit.op_class_0::No_OpClass            0      0.00%      0.00% # Class of committed instruction
system.cpu.commit.op_class_0::IntAlu                4     80.00%     80.00% # Class of committed instruction
system.cpu.commit.op_class_0::IntMult               0      0.00%     80.00% # Class of committed instruction
system.cpu.commit.op_class_0::IntDiv                0      0.00%     80.00% # Class of committed instruction
system.cpu.commit.op_class_0::FloatAdd              0      0.00%     80.00% # Class of committed instruction
system.cpu.commit.op_class_0::FloatCmp              0      0.00%     80.00% # Class of committed instruction
system.cpu.commit.op_class_0::FloatCvt              0      0.00%     80.00% # Class of committed instruction
system.cpu.commit.op_class_0::FloatMult             0      0.00%     80.00% # Class of committed instruction
system.cpu.commit.op_class_0::FloatDiv              0      0.00%     80.00% # Class of committed instruction
system.cpu.commit.op_class_0::FloatSqrt             0      0.00%     80.00% # Class of committed instruction
system.cpu.commit.op_class_0::SimdAdd               0      0.00%     80.00% # Class of committed instruction
system.cpu.commit.op_class_0::SimdAddAcc            0      0.00%     80.00% # Class of committed instruction
system.cpu.commit.op_class_0::SimdAlu               0      0.00%     80.00% # Class of committed instruction
system.cpu.commit.op_class_0::SimdCmp               0      0.00%     80.00% # Class of committed instruction
system.cpu.commit.op_class_0::SimdCvt               0      0.00%     80.00% # Class of committed instruction
system.cpu.commit.op_class_0::SimdMisc              0      0.00%     80.00% # Class of committed instruction
system.cpu.commit.op_class_0::SimdMult              0      0.00%     80.00% # Class of committed instruction
system.cpu.commit.op_class_0::SimdMultAcc            0      0.00%     80.00% # Class of committed instruction
system.cpu.commit.op_class_0::SimdShift             0      0.00%     80.00% # Class of committed instruction
system.cpu.commit.op_class_0::SimdShiftAcc            0      0.00%     80.00% # Class of committed instruction
system.cpu.commit.op_class_0::SimdSqrt              0      0.00%     80.00% # Class of committed instruction
system.cpu.commit.op_class_0::SimdFloatAdd            0      0.00%     80.00% # Class of committed instruction
system.cpu.commit.op_class_0::SimdFloatAlu            0      0.00%     80.00% # Class of committed instruction
system.cpu.commit.op_class_0::SimdFloatCmp            0      0.00%     80.00% # Class of committed instruction
system.cpu.commit.op_class_0::SimdFloatCvt            0      0.00%     80.00% # Class of committed instruction
system.cpu.commit.op_class_0::SimdFloatDiv            0      0.00%     80.00% # Class of committed instruction
system.cpu.commit.op_class_0::SimdFloatMisc            0      0.00%     80.00% # Class of committed instruction
system.cpu.commit.op_class_0::SimdFloatMult            0      0.00%     80.00% # Class of committed instruction
system.cpu.commit.op_class_0::SimdFloatMultAcc            0      0.00%     80.00% # Class of committed instruction
system.cpu.commit.op_class_0::SimdFloatSqrt            0      0.00%     80.00% # Class of committed instruction
system.cpu.commit.op_class_0::MemRead               1     20.00%    100.00% # Class of committed instruction
system.cpu.commit.op_class_0::MemWrite              0      0.00%    100.00% # Class of committed instruction
system.cpu.commit.op_class_0::IprAccess             0      0.00%    100.00% # Class of committed instruction
system.cpu.commit.op_class_0::InstPrefetch            0      0.00%    100.00% # Class of committed instruction
system.cpu.commit.op_class_0::total                 5                       # Class of committed instruction
system.cpu.commit.bw_lim_events                     0                       # number cycles where commit BW limit reached
system.cpu.rob.rob_reads                           74                       # The number of ROB reads
system.cpu.rob.rob_writes                          45                       # The number of ROB writes
system.cpu.timesIdled                               3                       # Number of times that the entire CPU went into an idle state and unscheduled itself
system.cpu.idleCycles                             300                       # Total number of cycles that the CPU has spent unscheduled due to idling
system.cpu.committedInsts                           3                       # Number of Instructions Simulated
system.cpu.committedOps                             5                       # Number of Ops (including micro ops) Simulated
system.cpu.cpi                             119.333333                       # CPI: Cycles Per Instruction
system.cpu.cpi_total                       119.333333                       # CPI: Total CPI of All Threads
system.cpu.ipc                               0.008380                       # IPC: Instructions Per Cycle
system.cpu.ipc_total                         0.008380                       # IPC: Total IPC of All Threads
system.cpu.int_regfile_reads                       68                       # number of integer regfile reads
system.cpu.int_regfile_writes                      16                       # number of integer regfile writes
system.cpu.fp_regfile_reads                        56                       # number of floating regfile reads
system.cpu.cc_regfile_reads                         7                       # number of cc regfile reads
system.cpu.cc_regfile_writes                        4                       # number of cc regfile writes
system.cpu.misc_regfile_reads                       7                       # number of misc regfile reads
system.cpu.dcache.tags.replacements            422503                       # number of replacements
system.cpu.dcache.tags.tagsinuse           511.736528                       # Cycle average of tags in use
system.cpu.dcache.tags.total_refs            93289840                       # Total number of references to valid blocks.
system.cpu.dcache.tags.sampled_refs            423015                       # Sample count of references to valid blocks.
system.cpu.dcache.tags.avg_refs            220.535537                       # Average number of references to valid blocks.
system.cpu.dcache.tags.warmup_cycle         363169500                       # Cycle when the warmup percentage was hit.
system.cpu.dcache.tags.occ_blocks::cpu.data     0.001095                       # Average occupied blocks per requestor
system.cpu.dcache.tags.occ_blocks::switch_cpus.data   387.413376                       # Average occupied blocks per requestor
system.cpu.dcache.tags.occ_blocks::switch_cpus_1.data   124.322057                       # Average occupied blocks per requestor
system.cpu.dcache.tags.occ_percent::cpu.data     0.000002                       # Average percentage of cache occupancy
system.cpu.dcache.tags.occ_percent::switch_cpus.data     0.756667                       # Average percentage of cache occupancy
system.cpu.dcache.tags.occ_percent::switch_cpus_1.data     0.242817                       # Average percentage of cache occupancy
system.cpu.dcache.tags.occ_percent::total     0.999485                       # Average percentage of cache occupancy
system.cpu.dcache.tags.occ_task_id_blocks::1024          512                       # Occupied blocks per task id
system.cpu.dcache.tags.age_task_id_blocks_1024::0           30                       # Occupied blocks per task id
system.cpu.dcache.tags.age_task_id_blocks_1024::1          203                       # Occupied blocks per task id
system.cpu.dcache.tags.age_task_id_blocks_1024::2          250                       # Occupied blocks per task id
system.cpu.dcache.tags.age_task_id_blocks_1024::3           22                       # Occupied blocks per task id
system.cpu.dcache.tags.age_task_id_blocks_1024::4            7                       # Occupied blocks per task id
system.cpu.dcache.tags.occ_task_id_percent::1024            1                       # Percentage of cache occupancy per task id
system.cpu.dcache.tags.tag_accesses         187926199                       # Number of tag accesses
system.cpu.dcache.tags.data_accesses        187926199                       # Number of data accesses
system.cpu.dcache.ReadReq_hits::switch_cpus.data     19547867                       # number of ReadReq hits
system.cpu.dcache.ReadReq_hits::switch_cpus_1.data     33815430                       # number of ReadReq hits
system.cpu.dcache.ReadReq_hits::total        53363297                       # number of ReadReq hits
system.cpu.dcache.WriteReq_hits::switch_cpus.data     13748816                       # number of WriteReq hits
system.cpu.dcache.WriteReq_hits::switch_cpus_1.data     26177726                       # number of WriteReq hits
system.cpu.dcache.WriteReq_hits::total       39926542                       # number of WriteReq hits
system.cpu.dcache.demand_hits::switch_cpus.data     33296683                       # number of demand (read+write) hits
system.cpu.dcache.demand_hits::switch_cpus_1.data     59993156                       # number of demand (read+write) hits
system.cpu.dcache.demand_hits::total         93289839                       # number of demand (read+write) hits
system.cpu.dcache.overall_hits::switch_cpus.data     33296683                       # number of overall hits
system.cpu.dcache.overall_hits::switch_cpus_1.data     59993156                       # number of overall hits
system.cpu.dcache.overall_hits::total        93289839                       # number of overall hits
system.cpu.dcache.ReadReq_misses::cpu.data            1                       # number of ReadReq misses
system.cpu.dcache.ReadReq_misses::switch_cpus.data        58932                       # number of ReadReq misses
system.cpu.dcache.ReadReq_misses::switch_cpus_1.data       135585                       # number of ReadReq misses
system.cpu.dcache.ReadReq_misses::total        194518                       # number of ReadReq misses
system.cpu.dcache.WriteReq_misses::switch_cpus.data       168996                       # number of WriteReq misses
system.cpu.dcache.WriteReq_misses::switch_cpus_1.data        98239                       # number of WriteReq misses
system.cpu.dcache.WriteReq_misses::total       267235                       # number of WriteReq misses
system.cpu.dcache.demand_misses::cpu.data            1                       # number of demand (read+write) misses
system.cpu.dcache.demand_misses::switch_cpus.data       227928                       # number of demand (read+write) misses
system.cpu.dcache.demand_misses::switch_cpus_1.data       233824                       # number of demand (read+write) misses
system.cpu.dcache.demand_misses::total         461753                       # number of demand (read+write) misses
system.cpu.dcache.overall_misses::cpu.data            1                       # number of overall misses
system.cpu.dcache.overall_misses::switch_cpus.data       227928                       # number of overall misses
system.cpu.dcache.overall_misses::switch_cpus_1.data       233824                       # number of overall misses
system.cpu.dcache.overall_misses::total        461753                       # number of overall misses
system.cpu.dcache.ReadReq_miss_latency::cpu.data        85000                       # number of ReadReq miss cycles
system.cpu.dcache.ReadReq_miss_latency::switch_cpus.data   2204444000                       # number of ReadReq miss cycles
system.cpu.dcache.ReadReq_miss_latency::switch_cpus_1.data   3145593500                       # number of ReadReq miss cycles
system.cpu.dcache.ReadReq_miss_latency::total   5350122500                       # number of ReadReq miss cycles
system.cpu.dcache.WriteReq_miss_latency::switch_cpus.data  13483072000                       # number of WriteReq miss cycles
system.cpu.dcache.WriteReq_miss_latency::switch_cpus_1.data   7641586500                       # number of WriteReq miss cycles
system.cpu.dcache.WriteReq_miss_latency::total  21124658500                       # number of WriteReq miss cycles
system.cpu.dcache.demand_miss_latency::cpu.data        85000                       # number of demand (read+write) miss cycles
system.cpu.dcache.demand_miss_latency::switch_cpus.data  15687516000                       # number of demand (read+write) miss cycles
system.cpu.dcache.demand_miss_latency::switch_cpus_1.data  10787180000                       # number of demand (read+write) miss cycles
system.cpu.dcache.demand_miss_latency::total  26474781000                       # number of demand (read+write) miss cycles
system.cpu.dcache.overall_miss_latency::cpu.data        85000                       # number of overall miss cycles
system.cpu.dcache.overall_miss_latency::switch_cpus.data  15687516000                       # number of overall miss cycles
system.cpu.dcache.overall_miss_latency::switch_cpus_1.data  10787180000                       # number of overall miss cycles
system.cpu.dcache.overall_miss_latency::total  26474781000                       # number of overall miss cycles
system.cpu.dcache.ReadReq_accesses::cpu.data            1                       # number of ReadReq accesses(hits+misses)
system.cpu.dcache.ReadReq_accesses::switch_cpus.data     19606799                       # number of ReadReq accesses(hits+misses)
system.cpu.dcache.ReadReq_accesses::switch_cpus_1.data     33951015                       # number of ReadReq accesses(hits+misses)
system.cpu.dcache.ReadReq_accesses::total     53557815                       # number of ReadReq accesses(hits+misses)
system.cpu.dcache.WriteReq_accesses::switch_cpus.data     13917812                       # number of WriteReq accesses(hits+misses)
system.cpu.dcache.WriteReq_accesses::switch_cpus_1.data     26275965                       # number of WriteReq accesses(hits+misses)
system.cpu.dcache.WriteReq_accesses::total     40193777                       # number of WriteReq accesses(hits+misses)
system.cpu.dcache.demand_accesses::cpu.data            1                       # number of demand (read+write) accesses
system.cpu.dcache.demand_accesses::switch_cpus.data     33524611                       # number of demand (read+write) accesses
system.cpu.dcache.demand_accesses::switch_cpus_1.data     60226980                       # number of demand (read+write) accesses
system.cpu.dcache.demand_accesses::total     93751592                       # number of demand (read+write) accesses
system.cpu.dcache.overall_accesses::cpu.data            1                       # number of overall (read+write) accesses
system.cpu.dcache.overall_accesses::switch_cpus.data     33524611                       # number of overall (read+write) accesses
system.cpu.dcache.overall_accesses::switch_cpus_1.data     60226980                       # number of overall (read+write) accesses
system.cpu.dcache.overall_accesses::total     93751592                       # number of overall (read+write) accesses
system.cpu.dcache.ReadReq_miss_rate::cpu.data            1                       # miss rate for ReadReq accesses
system.cpu.dcache.ReadReq_miss_rate::switch_cpus.data     0.003006                       # miss rate for ReadReq accesses
system.cpu.dcache.ReadReq_miss_rate::switch_cpus_1.data     0.003994                       # miss rate for ReadReq accesses
system.cpu.dcache.ReadReq_miss_rate::total     0.003632                       # miss rate for ReadReq accesses
system.cpu.dcache.WriteReq_miss_rate::switch_cpus.data     0.012142                       # miss rate for WriteReq accesses
system.cpu.dcache.WriteReq_miss_rate::switch_cpus_1.data     0.003739                       # miss rate for WriteReq accesses
system.cpu.dcache.WriteReq_miss_rate::total     0.006649                       # miss rate for WriteReq accesses
system.cpu.dcache.demand_miss_rate::cpu.data            1                       # miss rate for demand accesses
system.cpu.dcache.demand_miss_rate::switch_cpus.data     0.006799                       # miss rate for demand accesses
system.cpu.dcache.demand_miss_rate::switch_cpus_1.data     0.003882                       # miss rate for demand accesses
system.cpu.dcache.demand_miss_rate::total     0.004925                       # miss rate for demand accesses
system.cpu.dcache.overall_miss_rate::cpu.data            1                       # miss rate for overall accesses
system.cpu.dcache.overall_miss_rate::switch_cpus.data     0.006799                       # miss rate for overall accesses
system.cpu.dcache.overall_miss_rate::switch_cpus_1.data     0.003882                       # miss rate for overall accesses
system.cpu.dcache.overall_miss_rate::total     0.004925                       # miss rate for overall accesses
[...]
system.switch_cpus_1.iew.lsq.thread0.ignoredResponses         4790                       # Number of memory responses ignored because the instruction is squashed
system.switch_cpus_1.iew.lsq.thread0.memOrderViolation         1340                       # Number of memory ordering violations
system.switch_cpus_1.iew.lsq.thread0.squashedStores      1900107                       # Number of stores squashed
system.switch_cpus_1.iew.lsq.thread0.invAddrSwpfs            0                       # Number of software prefetches ignored due to an invalid address
system.switch_cpus_1.iew.lsq.thread0.blockedLoads            0                       # Number of blocked loads due to partial load-store forwarding
system.switch_cpus_1.iew.lsq.thread0.rescheduledLoads            4                       # Number of loads that were rescheduled
system.switch_cpus_1.iew.lsq.thread0.cacheBlocked            9                       # Number of times an access to memory failed due to the cache being blocked
system.switch_cpus_1.iew.iewIdleCycles              0                       # Number of cycles IEW is idle
system.switch_cpus_1.iew.iewSquashCycles      1057617                       # Number of cycles IEW is squashing
system.switch_cpus_1.iew.iewBlockCycles       4676649                       # Number of cycles IEW is blocking
system.switch_cpus_1.iew.iewUnblockCycles       248081                       # Number of cycles IEW is unblocking
system.switch_cpus_1.iew.iewDispatchedInsts    419870677                       # Number of instructions dispatched to IQ
system.switch_cpus_1.iew.iewDispSquashedInsts          103                       # Number of squashed instructions skipped by dispatch
system.switch_cpus_1.iew.iewDispLoadInsts     43489399                       # Number of dispatched load instructions
system.switch_cpus_1.iew.iewDispStoreInsts     28176073                       # Number of dispatched store instructions
system.switch_cpus_1.iew.iewDispNonSpecInsts          180                       # Number of dispatched non-speculative instructions
system.switch_cpus_1.iew.iewIQFullEvents        25871                       # Number of times the IQ has become full, causing a stall
system.switch_cpus_1.iew.iewLSQFullEvents       212621                       # Number of times the LSQ has become full, causing a stall
system.switch_cpus_1.iew.memOrderViolationEvents         1340                       # Number of memory order violations
system.switch_cpus_1.iew.predictedTakenIncorrect       184306                       # Number of branches that were predicted taken incorrectly
system.switch_cpus_1.iew.predictedNotTakenIncorrect      1425984                       # Number of branches that were predicted not taken incorrectly
system.switch_cpus_1.iew.branchMispredicts      1610290                       # Number of branch mispredicts detected at execute
system.switch_cpus_1.iew.iewExecutedInsts    409612516                       # Number of executed instructions
system.switch_cpus_1.iew.iewExecLoadInsts     42455279                       # Number of load instructions executed
system.switch_cpus_1.iew.iewExecSquashedInsts      2976389                       # Number of squashed instructions skipped in execute
system.switch_cpus_1.iew.exec_swp                   0                       # number of swp insts executed
system.switch_cpus_1.iew.exec_nop                   0                       # number of nop insts executed
system.switch_cpus_1.iew.exec_refs           69575340                       # number of memory reference insts executed
system.switch_cpus_1.iew.exec_branches       52616422                       # Number of branches executed
system.switch_cpus_1.iew.exec_stores         27120061                       # Number of stores executed
system.switch_cpus_1.iew.exec_rate           3.391058                       # Inst execution rate
system.switch_cpus_1.iew.wb_sent            409075983                       # cumulative count of insts sent to commit
system.switch_cpus_1.iew.wb_count           408381872                       # cumulative count of insts written-back
system.switch_cpus_1.iew.wb_producers       294052080                       # num instructions producing a value
system.switch_cpus_1.iew.wb_consumers       448366500                       # num instructions consuming a value
system.switch_cpus_1.iew.wb_penalized               0                       # number of instrctions required to write to 'other' IQ
system.switch_cpus_1.iew.wb_rate             3.380870                       # insts written-back per cycle
system.switch_cpus_1.iew.wb_fanout           0.655830                       # average fanout of values written-back
system.switch_cpus_1.iew.wb_penalized_rate            0                       # fraction of instructions written-back that wrote to 'other' IQ
system.switch_cpus_1.commit.commitSquashedInsts     30926812                       # The number of squashed insts skipped by commit
system.switch_cpus_1.commit.commitNonSpecStalls          180                       # The number of times commit has been forced to stall to communicate backwards
system.switch_cpus_1.commit.branchMispredicts      1056397                       # The number of times a branch was mispredicted
system.switch_cpus_1.commit.committed_per_cycle::samples    116506732                       # Number of insts commited each cycle
system.switch_cpus_1.commit.committed_per_cycle::mean     3.338381                       # Number of insts commited each cycle
system.switch_cpus_1.commit.committed_per_cycle::stdev     2.966939                       # Number of insts commited each cycle
system.switch_cpus_1.commit.committed_per_cycle::underflows            0      0.00%      0.00% # Number of insts commited each cycle
system.switch_cpus_1.commit.committed_per_cycle::0     25359457     21.77%     21.77% # Number of insts commited each cycle
system.switch_cpus_1.commit.committed_per_cycle::1     16437509     14.11%     35.88% # Number of insts commited each cycle
system.switch_cpus_1.commit.committed_per_cycle::2     14069712     12.08%     47.95% # Number of insts commited each cycle
system.switch_cpus_1.commit.committed_per_cycle::3     18670528     16.03%     63.98% # Number of insts commited each cycle
system.switch_cpus_1.commit.committed_per_cycle::4      6411666      5.50%     69.48% # Number of insts commited each cycle
system.switch_cpus_1.commit.committed_per_cycle::5      4057883      3.48%     72.96% # Number of insts commited each cycle
system.switch_cpus_1.commit.committed_per_cycle::6      3472234      2.98%     75.94% # Number of insts commited each cycle
system.switch_cpus_1.commit.committed_per_cycle::7      2636076      2.26%     78.21% # Number of insts commited each cycle
system.switch_cpus_1.commit.committed_per_cycle::8     25391667     21.79%    100.00% # Number of insts commited each cycle
system.switch_cpus_1.commit.committed_per_cycle::overflows            0      0.00%    100.00% # Number of insts commited each cycle
system.switch_cpus_1.commit.committed_per_cycle::min_value            0                       # Number of insts commited each cycle
system.switch_cpus_1.commit.committed_per_cycle::max_value            8                       # Number of insts commited each cycle
system.switch_cpus_1.commit.committed_per_cycle::total    116506732                       # Number of insts commited each cycle
system.switch_cpus_1.commit.committedInsts    200000003                       # Number of instructions committed
system.switch_cpus_1.commit.committedOps    388943868                       # Number of ops (including micro ops) committed
system.switch_cpus_1.commit.swp_count               0                       # Number of s/w prefetches committed
system.switch_cpus_1.commit.refs             65952950                       # Number of memory references committed
system.switch_cpus_1.commit.loads            39676985                       # Number of loads committed
system.switch_cpus_1.commit.membars                 0                       # Number of memory barriers committed
system.switch_cpus_1.commit.branches         50425459                       # Number of branches committed
system.switch_cpus_1.commit.fp_insts          3438963                       # Number of committed floating point instructions.
system.switch_cpus_1.commit.int_insts       385013357                       # Number of committed integer instructions.
system.switch_cpus_1.commit.function_calls      1843718                       # Number of function calls committed.
system.switch_cpus_1.commit.op_class_0::No_OpClass      1769940      0.46%      0.46% # Class of committed instruction
system.switch_cpus_1.commit.op_class_0::IntAlu    317363062     81.60%     82.05% # Class of committed instruction
system.switch_cpus_1.commit.op_class_0::IntMult      1196428      0.31%     82.36% # Class of committed instruction
system.switch_cpus_1.commit.op_class_0::IntDiv            0      0.00%     82.36% # Class of committed instruction
system.switch_cpus_1.commit.op_class_0::FloatAdd      2661488      0.68%     83.04% # Class of committed instruction
system.switch_cpus_1.commit.op_class_0::FloatCmp            0      0.00%     83.04% # Class of committed instruction
system.switch_cpus_1.commit.op_class_0::FloatCvt            0      0.00%     83.04% # Class of committed instruction
system.switch_cpus_1.commit.op_class_0::FloatMult            0      0.00%     83.04% # Class of committed instruction
system.switch_cpus_1.commit.op_class_0::FloatDiv            0      0.00%     83.04% # Class of committed instruction
system.switch_cpus_1.commit.op_class_0::FloatSqrt            0      0.00%     83.04% # Class of committed instruction
system.switch_cpus_1.commit.op_class_0::SimdAdd            0      0.00%     83.04% # Class of committed instruction
system.switch_cpus_1.commit.op_class_0::SimdAddAcc            0      0.00%     83.04% # Class of committed instruction
system.switch_cpus_1.commit.op_class_0::SimdAlu            0      0.00%     83.04% # Class of committed instruction
system.switch_cpus_1.commit.op_class_0::SimdCmp            0      0.00%     83.04% # Class of committed instruction
system.switch_cpus_1.commit.op_class_0::SimdCvt            0      0.00%     83.04% # Class of committed instruction
system.switch_cpus_1.commit.op_class_0::SimdMisc            0      0.00%     83.04% # Class of committed instruction
system.switch_cpus_1.commit.op_class_0::SimdMult            0      0.00%     83.04% # Class of committed instruction
system.switch_cpus_1.commit.op_class_0::SimdMultAcc            0      0.00%     83.04% # Class of committed instruction
system.switch_cpus_1.commit.op_class_0::SimdShift            0      0.00%     83.04% # Class of committed instruction
system.switch_cpus_1.commit.op_class_0::SimdShiftAcc            0      0.00%     83.04% # Class of committed instruction
system.switch_cpus_1.commit.op_class_0::SimdSqrt            0      0.00%     83.04% # Class of committed instruction
system.switch_cpus_1.commit.op_class_0::SimdFloatAdd            0      0.00%     83.04% # Class of committed instruction
system.switch_cpus_1.commit.op_class_0::SimdFloatAlu            0      0.00%     83.04% # Class of committed instruction
system.switch_cpus_1.commit.op_class_0::SimdFloatCmp            0      0.00%     83.04% # Class of committed instruction
system.switch_cpus_1.commit.op_class_0::SimdFloatCvt            0      0.00%     83.04% # Class of committed instruction
system.switch_cpus_1.commit.op_class_0::SimdFloatDiv            0      0.00%     83.04% # Class of committed instruction
system.switch_cpus_1.commit.op_class_0::SimdFloatMisc            0      0.00%     83.04% # Class of committed instruction
system.switch_cpus_1.commit.op_class_0::SimdFloatMult            0      0.00%     83.04% # Class of committed instruction
system.switch_cpus_1.commit.op_class_0::SimdFloatMultAcc            0      0.00%     83.04% # Class of committed instruction
system.switch_cpus_1.commit.op_class_0::SimdFloatSqrt            0      0.00%     83.04% # Class of committed instruction
system.switch_cpus_1.commit.op_class_0::MemRead     39676985     10.20%     93.24% # Class of committed instruction
system.switch_cpus_1.commit.op_class_0::MemWrite     26275965      6.76%    100.00% # Class of committed instruction
system.switch_cpus_1.commit.op_class_0::IprAccess            0      0.00%    100.00% # Class of committed instruction
system.switch_cpus_1.commit.op_class_0::InstPrefetch            0      0.00%    100.00% # Class of committed instruction
system.switch_cpus_1.commit.op_class_0::total    388943868                       # Class of committed instruction
system.switch_cpus_1.commit.bw_lim_events     25391667                       # number cycles where commit BW limit reached
system.switch_cpus_1.rob.rob_reads          510985745                       # The number of ROB reads
system.switch_cpus_1.rob.rob_writes         844031167                       # The number of ROB writes
system.switch_cpus_1.timesIdled                     5                       # Number of times that the entire CPU went into an idle state and unscheduled itself
system.switch_cpus_1.idleCycles                   137                       # Total number of cycles that the CPU has spent unscheduled due to idling
system.switch_cpus_1.committedInsts         200000003                       # Number of Instructions Simulated
system.switch_cpus_1.committedOps           388943868                       # Number of Ops (including micro ops) Simulated
system.switch_cpus_1.cpi                     0.603960                       # CPI: Cycles Per Instruction
system.switch_cpus_1.cpi_total               0.603960                       # CPI: Total CPI of All Threads
system.switch_cpus_1.ipc                     1.655740                       # IPC: Instructions Per Cycle
system.switch_cpus_1.ipc_total               1.655740                       # IPC: Total IPC of All Threads
system.switch_cpus_1.int_regfile_reads      578977365                       # number of integer regfile reads
system.switch_cpus_1.int_regfile_writes     325714002                       # number of integer regfile writes
system.switch_cpus_1.fp_regfile_reads         5256948                       # number of floating regfile reads
system.switch_cpus_1.fp_regfile_writes        2911653                       # number of floating regfile writes
system.switch_cpus_1.cc_regfile_reads       274135347                       # number of cc regfile reads
system.switch_cpus_1.cc_regfile_writes      144556627                       # number of cc regfile writes
system.switch_cpus_1.misc_regfile_reads     172880833                       # number of misc regfile reads
system.switch_cpus_1.misc_regfile_writes            1                       # number of misc regfile writes
system.tol2bus.snoop_filter.tot_requests       846023                       # Total number of requests made to the snoop filter.
system.tol2bus.snoop_filter.hit_single_requests       422565                       # Number of requests hitting in the snoop filter with a single holder of the requested data.
system.tol2bus.snoop_filter.hit_multi_requests          146                       # Number of requests hitting in the snoop filter with multiple (>1) holders of the requested data.
system.tol2bus.snoop_filter.tot_snoops            385                       # Total number of snoops made to the snoop filter.
system.tol2bus.snoop_filter.hit_single_snoops          385                       # Number of snoops hitting in the snoop filter with a single holder of the requested data.
system.tol2bus.snoop_filter.hit_multi_snoops            0                       # Number of snoops hitting in the snoop filter with multiple (>1) holders of the requested data.
system.tol2bus.trans_dist::ReadResp            156225                       # Transaction distribution
system.tol2bus.trans_dist::WritebackDirty       547990                       # Transaction distribution
system.tol2bus.trans_dist::WritebackClean           60                       # Transaction distribution
system.tol2bus.trans_dist::CleanEvict           40380                       # Transaction distribution
system.tol2bus.trans_dist::UpgradeReq               1                       # Transaction distribution
system.tol2bus.trans_dist::UpgradeResp              1                       # Transaction distribution
system.tol2bus.trans_dist::ReadExReq           267234                       # Transaction distribution
system.tol2bus.trans_dist::ReadExResp          267234                       # Transaction distribution
system.tol2bus.trans_dist::ReadCleanReq           444                       # Transaction distribution
system.tol2bus.trans_dist::ReadSharedReq       155781                       # Transaction distribution
system.tol2bus.pkt_count_system.cpu.icache.mem_side::system.l2.cpu_side          947                       # Packet count per connected master and slave (bytes)
system.tol2bus.pkt_count_system.cpu.dcache.mem_side::system.l2.cpu_side      1268390                       # Packet count per connected master and slave (bytes)
system.tol2bus.pkt_count::total               1269337                       # Packet count per connected master and slave (bytes)
system.tol2bus.pkt_size_system.cpu.icache.mem_side::system.l2.cpu_side        32192                       # Cumulative packet size per connected master and slave (bytes)
system.tol2bus.pkt_size_system.cpu.dcache.mem_side::system.l2.cpu_side     51549760                       # Cumulative packet size per connected master and slave (bytes)
system.tol2bus.pkt_size::total               51581952                       # Cumulative packet size per connected master and slave (bytes)
system.tol2bus.snoops                          166013                       # Total snoops (count)
system.tol2bus.snoop_fanout::samples           589472                       # Request fanout histogram
system.tol2bus.snoop_fanout::mean            0.000904                       # Request fanout histogram
system.tol2bus.snoop_fanout::stdev           0.030056                       # Request fanout histogram
system.tol2bus.snoop_fanout::underflows             0      0.00%      0.00% # Request fanout histogram
system.tol2bus.snoop_fanout::0                 588939     99.91%     99.91% # Request fanout histogram
system.tol2bus.snoop_fanout::1                    533      0.09%    100.00% # Request fanout histogram
system.tol2bus.snoop_fanout::2                      0      0.00%    100.00% # Request fanout histogram
system.tol2bus.snoop_fanout::3                      0      0.00%    100.00% # Request fanout histogram
system.tol2bus.snoop_fanout::4                      0      0.00%    100.00% # Request fanout histogram
system.tol2bus.snoop_fanout::overflows              0      0.00%    100.00% # Request fanout histogram
system.tol2bus.snoop_fanout::min_value              0                       # Request fanout histogram
system.tol2bus.snoop_fanout::max_value              1                       # Request fanout histogram
system.tol2bus.snoop_fanout::total             589472                       # Request fanout histogram
system.tol2bus.reqLayer0.occupancy          805521500                       # Layer occupancy (ticks)
system.tol2bus.reqLayer0.utilization              0.3                       # Layer utilization (%)
system.tol2bus.respLayer0.occupancy            666000                       # Layer occupancy (ticks)
system.tol2bus.respLayer0.utilization             0.0                       # Layer utilization (%)
system.tol2bus.respLayer1.occupancy         634523000                       # Layer occupancy (ticks)
system.tol2bus.respLayer1.utilization             0.3                       # Layer utilization (%)

---------- End Simulation Statistics   ----------
