
---------- Begin Simulation Statistics ----------
sim_seconds                                 51.320647                       # Number of seconds simulated
sim_ticks                                51320647066500                       # Number of ticks simulated
final_tick                               51320647066500                       # Number of ticks from beginning of simulation (restored from checkpoints and never reset)
sim_freq                                 1000000000000                       # Frequency of simulated ticks
host_inst_rate                                 114690                       # Simulator instruction rate (inst/s)
host_op_rate                                   134762                       # Simulator op (including micro ops) rate (op/s)
host_tick_rate                             6864170011                       # Simulator tick rate (ticks/s)
host_mem_usage                                 721888                       # Number of bytes of host memory used
host_seconds                                  7476.60                       # Real time elapsed on the host
sim_insts                                   857487967                       # Number of instructions simulated
sim_ops                                    1007562352                       # Number of ops (including micro ops) simulated
system.voltage_domain.voltage                       1                       # Voltage in Volts
system.clk_domain.clock                          1000                       # Clock period in ticks
system.physmem.bytes_read::cpu.dtb.walker       226752                       # Number of bytes read from this memory
system.physmem.bytes_read::cpu.itb.walker       205312                       # Number of bytes read from this memory
system.physmem.bytes_read::cpu.inst           5743904                       # Number of bytes read from this memory
system.physmem.bytes_read::cpu.data          43053832                       # Number of bytes read from this memory
system.physmem.bytes_read::realview.ide        407232                       # Number of bytes read from this memory
system.physmem.bytes_read::total             49637032                       # Number of bytes read from this memory
system.physmem.bytes_inst_read::cpu.inst      5743904                       # Number of instructions bytes read from this memory
system.physmem.bytes_inst_read::total         5743904                       # Number of instructions bytes read from this memory
system.physmem.bytes_written::writebacks     69718464                       # Number of bytes written to this memory
system.physmem.bytes_written::cpu.data          20580                       # Number of bytes written to this memory
system.physmem.bytes_written::total          69739044                       # Number of bytes written to this memory
system.physmem.num_reads::cpu.dtb.walker         3543                       # Number of read requests responded to by this memory
system.physmem.num_reads::cpu.itb.walker         3208                       # Number of read requests responded to by this memory
system.physmem.num_reads::cpu.inst             105701                       # Number of read requests responded to by this memory
system.physmem.num_reads::cpu.data             672729                       # Number of read requests responded to by this memory
system.physmem.num_reads::realview.ide           6363                       # Number of read requests responded to by this memory
system.physmem.num_reads::total                791544                       # Number of read requests responded to by this memory
system.physmem.num_writes::writebacks         1089351                       # Number of write requests responded to by this memory
system.physmem.num_writes::cpu.data              2573                       # Number of write requests responded to by this memory
system.physmem.num_writes::total              1091924                       # Number of write requests responded to by this memory
system.physmem.bw_read::cpu.dtb.walker           4418                       # Total read bandwidth from this memory (bytes/s)
system.physmem.bw_read::cpu.itb.walker           4001                       # Total read bandwidth from this memory (bytes/s)
system.physmem.bw_read::cpu.inst               111922                       # Total read bandwidth from this memory (bytes/s)
system.physmem.bw_read::cpu.data               838918                       # Total read bandwidth from this memory (bytes/s)
system.physmem.bw_read::realview.ide             7935                       # Total read bandwidth from this memory (bytes/s)
system.physmem.bw_read::total                  967194                       # Total read bandwidth from this memory (bytes/s)
system.physmem.bw_inst_read::cpu.inst          111922                       # Instruction read bandwidth from this memory (bytes/s)
system.physmem.bw_inst_read::total             111922                       # Instruction read bandwidth from this memory (bytes/s)
system.physmem.bw_write::writebacks           1358488                       # Write bandwidth from this memory (bytes/s)
system.physmem.bw_write::cpu.data                 401                       # Write bandwidth from this memory (bytes/s)
system.physmem.bw_write::total                1358889                       # Write bandwidth from this memory (bytes/s)
system.physmem.bw_total::writebacks           1358488                       # Total bandwidth to/from this memory (bytes/s)
system.physmem.bw_total::cpu.dtb.walker          4418                       # Total bandwidth to/from this memory (bytes/s)
system.physmem.bw_total::cpu.itb.walker          4001                       # Total bandwidth to/from this memory (bytes/s)
system.physmem.bw_total::cpu.inst              111922                       # Total bandwidth to/from this memory (bytes/s)
system.physmem.bw_total::cpu.data              839319                       # Total bandwidth to/from this memory (bytes/s)
system.physmem.bw_total::realview.ide            7935                       # Total bandwidth to/from this memory (bytes/s)
system.physmem.bw_total::total                2326083                       # Total bandwidth to/from this memory (bytes/s)
system.physmem.readReqs                        791544                       # Number of read requests accepted
system.physmem.writeReqs                      1694292                       # Number of write requests accepted
system.physmem.readBursts                      791544                       # Number of DRAM read bursts, including those serviced by the write queue
system.physmem.writeBursts                    1694292                       # Number of DRAM write bursts, including those merged in the write queue
system.physmem.bytesReadDRAM                 50622848                       # Total number of bytes read from DRAM
system.physmem.bytesReadWrQ                     35968                       # Total number of bytes read from write queue
system.physmem.bytesWritten                 107999616                       # Total number of bytes written to DRAM
system.physmem.bytesReadSys                  49637032                       # Total read bytes from the system interface side
system.physmem.bytesWrittenSys              108290596                       # Total written bytes from the system interface side
system.physmem.servicedByWrQ                      562                       # Number of DRAM read bursts serviced by the write queue
system.physmem.mergedWrBursts                    6769                       # Number of DRAM write bursts merged with an existing one
system.physmem.neitherReadNorWriteReqs          35256                       # Number of requests that are neither read nor write
system.physmem.perBankRdBursts::0               48315                       # Per bank write bursts
system.physmem.perBankRdBursts::1               50150                       # Per bank write bursts
system.physmem.perBankRdBursts::2               46175                       # Per bank write bursts
system.physmem.perBankRdBursts::3               46946                       # Per bank write bursts
system.physmem.perBankRdBursts::4               45323                       # Per bank write bursts
system.physmem.perBankRdBursts::5               52981                       # Per bank write bursts
system.physmem.perBankRdBursts::6               47646                       # Per bank write bursts
system.physmem.perBankRdBursts::7               48748                       # Per bank write bursts
system.physmem.perBankRdBursts::8               44337                       # Per bank write bursts
system.physmem.perBankRdBursts::9               72322                       # Per bank write bursts
system.physmem.perBankRdBursts::10              50834                       # Per bank write bursts
system.physmem.perBankRdBursts::11              50772                       # Per bank write bursts
system.physmem.perBankRdBursts::12              48451                       # Per bank write bursts
system.physmem.perBankRdBursts::13              47387                       # Per bank write bursts
system.physmem.perBankRdBursts::14              44232                       # Per bank write bursts
system.physmem.perBankRdBursts::15              46363                       # Per bank write bursts
system.physmem.perBankWrBursts::0              103979                       # Per bank write bursts
system.physmem.perBankWrBursts::1              105038                       # Per bank write bursts
system.physmem.perBankWrBursts::2              105754                       # Per bank write bursts
system.physmem.perBankWrBursts::3              105161                       # Per bank write bursts
system.physmem.perBankWrBursts::4              103562                       # Per bank write bursts
system.physmem.perBankWrBursts::5              108435                       # Per bank write bursts
system.physmem.perBankWrBursts::6              103867                       # Per bank write bursts
system.physmem.perBankWrBursts::7              105467                       # Per bank write bursts
system.physmem.perBankWrBursts::8              102645                       # Per bank write bursts
system.physmem.perBankWrBursts::9              108407                       # Per bank write bursts
system.physmem.perBankWrBursts::10             108582                       # Per bank write bursts
system.physmem.perBankWrBursts::11             107982                       # Per bank write bursts
system.physmem.perBankWrBursts::12             105330                       # Per bank write bursts
system.physmem.perBankWrBursts::13             105345                       # Per bank write bursts
system.physmem.perBankWrBursts::14             103911                       # Per bank write bursts
system.physmem.perBankWrBursts::15             104029                       # Per bank write bursts
system.physmem.numRdRetry                           0                       # Number of times read queue was full causing retry
system.physmem.numWrRetry                          30                       # Number of times write queue was full causing retry
system.physmem.totGap                    51320645833500                       # Total gap between requests
system.physmem.readPktSize::0                       0                       # Read request sizes (log2)
system.physmem.readPktSize::1                       0                       # Read request sizes (log2)
system.physmem.readPktSize::2                       0                       # Read request sizes (log2)
system.physmem.readPktSize::3                      13                       # Read request sizes (log2)
system.physmem.readPktSize::4                   21272                       # Read request sizes (log2)
system.physmem.readPktSize::5                       0                       # Read request sizes (log2)
system.physmem.readPktSize::6                  770259                       # Read request sizes (log2)
system.physmem.writePktSize::0                      0                       # Write request sizes (log2)
system.physmem.writePktSize::1                      0                       # Write request sizes (log2)
system.physmem.writePktSize::2                      1                       # Write request sizes (log2)
system.physmem.writePktSize::3                   2572                       # Write request sizes (log2)
system.physmem.writePktSize::4                      0                       # Write request sizes (log2)
system.physmem.writePktSize::5                      0                       # Write request sizes (log2)
system.physmem.writePktSize::6                1691719                       # Write request sizes (log2)
system.physmem.rdQLenPdf::0                    523893                       # What read queue length does an incoming req see
system.physmem.rdQLenPdf::1                    218096                       # What read queue length does an incoming req see
system.physmem.rdQLenPdf::2                     34112                       # What read queue length does an incoming req see
system.physmem.rdQLenPdf::3                     11428                       # What read queue length does an incoming req see
system.physmem.rdQLenPdf::4                       784                       # What read queue length does an incoming req see
system.physmem.rdQLenPdf::5                       453                       # What read queue length does an incoming req see
system.physmem.rdQLenPdf::6                       412                       # What read queue length does an incoming req see
system.physmem.rdQLenPdf::7                       327                       # What read queue length does an incoming req see
system.physmem.rdQLenPdf::8                       234                       # What read queue length does an incoming req see
system.physmem.rdQLenPdf::9                       162                       # What read queue length does an incoming req see
system.physmem.rdQLenPdf::10                      157                       # What read queue length does an incoming req see
system.physmem.rdQLenPdf::11                      139                       # What read queue length does an incoming req see
system.physmem.rdQLenPdf::12                      125                       # What read queue length does an incoming req see
system.physmem.rdQLenPdf::13                      123                       # What read queue length does an incoming req see
system.physmem.rdQLenPdf::14                      119                       # What read queue length does an incoming req see
system.physmem.rdQLenPdf::15                      110                       # What read queue length does an incoming req see
system.physmem.rdQLenPdf::16                       96                       # What read queue length does an incoming req see
system.physmem.rdQLenPdf::17                       90                       # What read queue length does an incoming req see
system.physmem.rdQLenPdf::18                       68                       # What read queue length does an incoming req see
system.physmem.rdQLenPdf::19                       49                       # What read queue length does an incoming req see
system.physmem.rdQLenPdf::20                        4                       # What read queue length does an incoming req see
system.physmem.rdQLenPdf::21                        1                       # What read queue length does an incoming req see
system.physmem.rdQLenPdf::22                        0                       # What read queue length does an incoming req see
system.physmem.rdQLenPdf::23                        0                       # What read queue length does an incoming req see
system.physmem.rdQLenPdf::24                        0                       # What read queue length does an incoming req see
system.physmem.rdQLenPdf::25                        0                       # What read queue length does an incoming req see
system.physmem.rdQLenPdf::26                        0                       # What read queue length does an incoming req see
system.physmem.rdQLenPdf::27                        0                       # What read queue length does an incoming req see
system.physmem.rdQLenPdf::28                        0                       # What read queue length does an incoming req see
system.physmem.rdQLenPdf::29                        0                       # What read queue length does an incoming req see
system.physmem.rdQLenPdf::30                        0                       # What read queue length does an incoming req see
system.physmem.rdQLenPdf::31                        0                       # What read queue length does an incoming req see
system.physmem.wrQLenPdf::0                         1                       # What write queue length does an incoming req see
system.physmem.wrQLenPdf::1                         1                       # What write queue length does an incoming req see
system.physmem.wrQLenPdf::2                         1                       # What write queue length does an incoming req see
system.physmem.wrQLenPdf::3                         1                       # What write queue length does an incoming req see
system.physmem.wrQLenPdf::4                         1                       # What write queue length does an incoming req see
system.physmem.wrQLenPdf::5                         1                       # What write queue length does an incoming req see
system.physmem.wrQLenPdf::6                         1                       # What write queue length does an incoming req see
system.physmem.wrQLenPdf::7                         1                       # What write queue length does an incoming req see
system.physmem.wrQLenPdf::8                         1                       # What write queue length does an incoming req see
system.physmem.wrQLenPdf::9                         1                       # What write queue length does an incoming req see
system.physmem.wrQLenPdf::10                        1                       # What write queue length does an incoming req see
system.physmem.wrQLenPdf::11                        1                       # What write queue length does an incoming req see
system.physmem.wrQLenPdf::12                        1                       # What write queue length does an incoming req see
system.physmem.wrQLenPdf::13                        1                       # What write queue length does an incoming req see
system.physmem.wrQLenPdf::14                        1                       # What write queue length does an incoming req see
system.physmem.wrQLenPdf::15                    35494                       # What write queue length does an incoming req see
system.physmem.wrQLenPdf::16                    67146                       # What write queue length does an incoming req see
system.physmem.wrQLenPdf::17                    82141                       # What write queue length does an incoming req see
system.physmem.wrQLenPdf::18                    96477                       # What write queue length does an incoming req see
system.physmem.wrQLenPdf::19                    97233                       # What write queue length does an incoming req see
system.physmem.wrQLenPdf::20                   109038                       # What write queue length does an incoming req see
system.physmem.wrQLenPdf::21                   106907                       # What write queue length does an incoming req see
system.physmem.wrQLenPdf::22                   116227                       # What write queue length does an incoming req see
system.physmem.wrQLenPdf::23                   110532                       # What write queue length does an incoming req see
system.physmem.wrQLenPdf::24                   123491                       # What write queue length does an incoming req see
system.physmem.wrQLenPdf::25                   110542                       # What write queue length does an incoming req see
system.physmem.wrQLenPdf::26                    98237                       # What write queue length does an incoming req see
system.physmem.wrQLenPdf::27                    89628                       # What write queue length does an incoming req see
system.physmem.wrQLenPdf::28                    89775                       # What write queue length does an incoming req see
system.physmem.wrQLenPdf::29                    76304                       # What write queue length does an incoming req see
system.physmem.wrQLenPdf::30                    74747                       # What write queue length does an incoming req see
system.physmem.wrQLenPdf::31                    73803                       # What write queue length does an incoming req see
system.physmem.wrQLenPdf::32                    70600                       # What write queue length does an incoming req see
system.physmem.wrQLenPdf::33                     4308                       # What write queue length does an incoming req see
system.physmem.wrQLenPdf::34                     3795                       # What write queue length does an incoming req see
system.physmem.wrQLenPdf::35                     3522                       # What write queue length does an incoming req see
system.physmem.wrQLenPdf::36                     3348                       # What write queue length does an incoming req see
system.physmem.wrQLenPdf::37                     3077                       # What write queue length does an incoming req see
system.physmem.wrQLenPdf::38                     3049                       # What write queue length does an incoming req see
system.physmem.wrQLenPdf::39                     2918                       # What write queue length does an incoming req see
system.physmem.wrQLenPdf::40                     2900                       # What write queue length does an incoming req see
system.physmem.wrQLenPdf::41                     2759                       # What write queue length does an incoming req see
system.physmem.wrQLenPdf::42                     2637                       # What write queue length does an incoming req see
system.physmem.wrQLenPdf::43                     2554                       # What write queue length does an incoming req see
system.physmem.wrQLenPdf::44                     2529                       # What write queue length does an incoming req see
system.physmem.wrQLenPdf::45                     2364                       # What write queue length does an incoming req see
system.physmem.wrQLenPdf::46                     2307                       # What write queue length does an incoming req see
system.physmem.wrQLenPdf::47                     2173                       # What write queue length does an incoming req see
system.physmem.wrQLenPdf::48                     2144                       # What write queue length does an incoming req see
system.physmem.wrQLenPdf::49                     1969                       # What write queue length does an incoming req see
system.physmem.wrQLenPdf::50                     1861                       # What write queue length does an incoming req see
system.physmem.wrQLenPdf::51                     1691                       # What write queue length does an incoming req see
system.physmem.wrQLenPdf::52                     1475                       # What write queue length does an incoming req see
system.physmem.wrQLenPdf::53                     1311                       # What write queue length does an incoming req see
system.physmem.wrQLenPdf::54                     1090                       # What write queue length does an incoming req see
system.physmem.wrQLenPdf::55                      882                       # What write queue length does an incoming req see
system.physmem.wrQLenPdf::56                      755                       # What write queue length does an incoming req see
system.physmem.wrQLenPdf::57                      583                       # What write queue length does an incoming req see
system.physmem.wrQLenPdf::58                      400                       # What write queue length does an incoming req see
system.physmem.wrQLenPdf::59                      286                       # What write queue length does an incoming req see
system.physmem.wrQLenPdf::60                      203                       # What write queue length does an incoming req see
system.physmem.wrQLenPdf::61                      125                       # What write queue length does an incoming req see
system.physmem.wrQLenPdf::62                       82                       # What write queue length does an incoming req see
system.physmem.wrQLenPdf::63                       89                       # What write queue length does an incoming req see
system.physmem.bytesPerActivate::samples       519566                       # Bytes accessed per row activation
system.physmem.bytesPerActivate::mean      305.297267                       # Bytes accessed per row activation
system.physmem.bytesPerActivate::gmean     172.561612                       # Bytes accessed per row activation
system.physmem.bytesPerActivate::stdev     342.602188                       # Bytes accessed per row activation
system.physmem.bytesPerActivate::0-127         210755     40.56%     40.56% # Bytes accessed per row activation
system.physmem.bytesPerActivate::128-255       125086     24.08%     64.64% # Bytes accessed per row activation
system.physmem.bytesPerActivate::256-383        44418      8.55%     73.19% # Bytes accessed per row activation
system.physmem.bytesPerActivate::384-511        23610      4.54%     77.73% # Bytes accessed per row activation
system.physmem.bytesPerActivate::512-639        15941      3.07%     80.80% # Bytes accessed per row activation
system.physmem.bytesPerActivate::640-767        10357      1.99%     82.79% # Bytes accessed per row activation
system.physmem.bytesPerActivate::768-895         8070      1.55%     84.35% # Bytes accessed per row activation
system.physmem.bytesPerActivate::896-1023         7704      1.48%     85.83% # Bytes accessed per row activation
system.physmem.bytesPerActivate::1024-1151        73625     14.17%    100.00% # Bytes accessed per row activation
system.physmem.bytesPerActivate::total         519566                       # Bytes accessed per row activation
system.physmem.rdPerTurnAround::samples         66165                       # Reads before turning the bus around for writes
system.physmem.rdPerTurnAround::mean        11.954266                       # Reads before turning the bus around for writes
system.physmem.rdPerTurnAround::stdev       69.214790                       # Reads before turning the bus around for writes
system.physmem.rdPerTurnAround::0-511           66159     99.99%     99.99% # Reads before turning the bus around for writes
system.physmem.rdPerTurnAround::512-1023            4      0.01%    100.00% # Reads before turning the bus around for writes
system.physmem.rdPerTurnAround::10240-10751            1      0.00%    100.00% # Reads before turning the bus around for writes
system.physmem.rdPerTurnAround::13824-14335            1      0.00%    100.00% # Reads before turning the bus around for writes
system.physmem.rdPerTurnAround::total           66165                       # Reads before turning the bus around for writes
system.physmem.wrPerTurnAround::samples         66165                       # Writes before turning the bus around for reads
system.physmem.wrPerTurnAround::mean        25.504330                       # Writes before turning the bus around for reads
system.physmem.wrPerTurnAround::gmean       22.270889                       # Writes before turning the bus around for reads
system.physmem.wrPerTurnAround::stdev       18.258332                       # Writes before turning the bus around for reads
system.physmem.wrPerTurnAround::16-23           44141     66.71%     66.71% # Writes before turning the bus around for reads
system.physmem.wrPerTurnAround::24-31            6693     10.12%     76.83% # Writes before turning the bus around for reads
system.physmem.wrPerTurnAround::32-39            8637     13.05%     89.88% # Writes before turning the bus around for reads
system.physmem.wrPerTurnAround::40-47            2199      3.32%     93.21% # Writes before turning the bus around for reads
system.physmem.wrPerTurnAround::48-55            1176      1.78%     94.98% # Writes before turning the bus around for reads
system.physmem.wrPerTurnAround::56-63             430      0.65%     95.63% # Writes before turning the bus around for reads
system.physmem.wrPerTurnAround::64-71             581      0.88%     96.51% # Writes before turning the bus around for reads
system.physmem.wrPerTurnAround::72-79             510      0.77%     97.28% # Writes before turning the bus around for reads
system.physmem.wrPerTurnAround::80-87             438      0.66%     97.94% # Writes before turning the bus around for reads
system.physmem.wrPerTurnAround::88-95             204      0.31%     98.25% # Writes before turning the bus around for reads
system.physmem.wrPerTurnAround::96-103            335      0.51%     98.76% # Writes before turning the bus around for reads
system.physmem.wrPerTurnAround::104-111           211      0.32%     99.08% # Writes before turning the bus around for reads
system.physmem.wrPerTurnAround::112-119           211      0.32%     99.40% # Writes before turning the bus around for reads
system.physmem.wrPerTurnAround::120-127            55      0.08%     99.48% # Writes before turning the bus around for reads
system.physmem.wrPerTurnAround::128-135           142      0.21%     99.69% # Writes before turning the bus around for reads
system.physmem.wrPerTurnAround::136-143            25      0.04%     99.73% # Writes before turning the bus around for reads
system.physmem.wrPerTurnAround::144-151            36      0.05%     99.79% # Writes before turning the bus around for reads
system.physmem.wrPerTurnAround::152-159            19      0.03%     99.82% # Writes before turning the bus around for reads
system.physmem.wrPerTurnAround::160-167            38      0.06%     99.87% # Writes before turning the bus around for reads
system.physmem.wrPerTurnAround::168-175            22      0.03%     99.91% # Writes before turning the bus around for reads
system.physmem.wrPerTurnAround::176-183            24      0.04%     99.94% # Writes before turning the bus around for reads
system.physmem.wrPerTurnAround::184-191             5      0.01%     99.95% # Writes before turning the bus around for reads
system.physmem.wrPerTurnAround::192-199             4      0.01%     99.96% # Writes before turning the bus around for reads
system.physmem.wrPerTurnAround::200-207             5      0.01%     99.96% # Writes before turning the bus around for reads
system.physmem.wrPerTurnAround::208-215             6      0.01%     99.97% # Writes before turning the bus around for reads
system.physmem.wrPerTurnAround::216-223             1      0.00%     99.97% # Writes before turning the bus around for reads
system.physmem.wrPerTurnAround::224-231             9      0.01%     99.99% # Writes before turning the bus around for reads
system.physmem.wrPerTurnAround::232-239             2      0.00%     99.99% # Writes before turning the bus around for reads
system.physmem.wrPerTurnAround::240-247             1      0.00%     99.99% # Writes before turning the bus around for reads
system.physmem.wrPerTurnAround::256-263             1      0.00%     99.99% # Writes before turning the bus around for reads
system.physmem.wrPerTurnAround::264-271             2      0.00%    100.00% # Writes before turning the bus around for reads
system.physmem.wrPerTurnAround::272-279             2      0.00%    100.00% # Writes before turning the bus around for reads
system.physmem.wrPerTurnAround::total           66165                       # Writes before turning the bus around for reads
system.physmem.totQLat                    15484448260                       # Total ticks spent queuing
system.physmem.totMemAccLat               30315360760                       # Total ticks spent from burst creation until serviced by the DRAM
system.physmem.totBusLat                   3954910000                       # Total ticks spent in databus transfers
system.physmem.avgQLat                       19576.23                       # Average queueing delay per DRAM burst
system.physmem.avgBusLat                      5000.00                       # Average bus latency per DRAM burst
system.physmem.avgMemAccLat                  38326.23                       # Average memory access latency per DRAM burst
system.physmem.avgRdBW                           0.99                       # Average DRAM read bandwidth in MiByte/s
system.physmem.avgWrBW                           2.10                       # Average achieved write bandwidth in MiByte/s
system.physmem.avgRdBWSys                        0.97                       # Average system read bandwidth in MiByte/s
system.physmem.avgWrBWSys                        2.11                       # Average system write bandwidth in MiByte/s
system.physmem.peakBW                        12800.00                       # Theoretical peak bandwidth in MiByte/s
system.physmem.busUtil                           0.02                       # Data bus utilization in percentage
system.physmem.busUtilRead                       0.01                       # Data bus utilization in percentage for reads
system.physmem.busUtilWrite                      0.02                       # Data bus utilization in percentage for writes
system.physmem.avgRdQLen                         1.04                       # Average read queue length when enqueuing
system.physmem.avgWrQLen                        22.87                       # Average write queue length when enqueuing
system.physmem.readRowHits                     603455                       # Number of row buffer hits during reads
system.physmem.writeRowHits                   1355453                       # Number of row buffer hits during writes
system.physmem.readRowHitRate                   76.29                       # Row buffer hit rate for reads
system.physmem.writeRowHitRate                  80.32                       # Row buffer hit rate for writes
system.physmem.avgGap                     20645225.93                       # Average gap between requests
system.physmem.pageHitRate                      79.04                       # Row buffer hit rate, read and write combined
system.physmem_0.actEnergy                 1965463920                       # Energy for activate commands per rank (pJ)
system.physmem_0.preEnergy                 1072425750                       # Energy for precharge commands per rank (pJ)
system.physmem_0.readEnergy                3012968400                       # Energy for read commands per rank (pJ)
system.physmem_0.writeEnergy               5451384240                       # Energy for write commands per rank (pJ)
system.physmem_0.refreshEnergy           3352015077840                       # Energy for refresh commands per rank (pJ)
system.physmem_0.actBackEnergy           1226370177675                       # Energy for active background per rank (pJ)
system.physmem_0.preBackEnergy           29716624044750                       # Energy for precharge background per rank (pJ)
system.physmem_0.totalEnergy             34306511542575                       # Total energy per rank (pJ)
system.physmem_0.averagePower              668.473889                       # Core power per rank (mW)
system.physmem_0.memoryStateTime::IDLE   49436215199501                       # Time in different power states
system.physmem_0.memoryStateTime::REF    1713709140000                       # Time in different power states
system.physmem_0.memoryStateTime::PRE_PDN            0                       # Time in different power states
system.physmem_0.memoryStateTime::ACT    170722374999                       # Time in different power states
system.physmem_0.memoryStateTime::ACT_PDN            0                       # Time in different power states
system.physmem_1.actEnergy                 1962455040                       # Energy for activate commands per rank (pJ)
system.physmem_1.preEnergy                 1070784000                       # Energy for precharge commands per rank (pJ)
system.physmem_1.readEnergy                3156644400                       # Energy for read commands per rank (pJ)
system.physmem_1.writeEnergy               5483576880                       # Energy for write commands per rank (pJ)
system.physmem_1.refreshEnergy           3352015077840                       # Energy for refresh commands per rank (pJ)
system.physmem_1.actBackEnergy           1227684074985                       # Energy for active background per rank (pJ)
system.physmem_1.preBackEnergy           29715471503250                       # Energy for precharge background per rank (pJ)
system.physmem_1.totalEnergy             34306844116395                       # Total energy per rank (pJ)
system.physmem_1.averagePower              668.480369                       # Core power per rank (mW)
system.physmem_1.memoryStateTime::IDLE   49434282568001                       # Time in different power states
system.physmem_1.memoryStateTime::REF    1713709140000                       # Time in different power states
system.physmem_1.memoryStateTime::PRE_PDN            0                       # Time in different power states
system.physmem_1.memoryStateTime::ACT    172653903249                       # Time in different power states
system.physmem_1.memoryStateTime::ACT_PDN            0                       # Time in different power states
system.realview.nvmem.bytes_read::cpu.inst          400                       # Number of bytes read from this memory
system.realview.nvmem.bytes_read::cpu.data           36                       # Number of bytes read from this memory
system.realview.nvmem.bytes_read::total           436                       # Number of bytes read from this memory
system.realview.nvmem.bytes_inst_read::cpu.inst          400                       # Number of instructions bytes read from this memory
system.realview.nvmem.bytes_inst_read::total          400                       # Number of instructions bytes read from this memory
system.realview.nvmem.num_reads::cpu.inst           25                       # Number of read requests responded to by this memory
system.realview.nvmem.num_reads::cpu.data            5                       # Number of read requests responded to by this memory
system.realview.nvmem.num_reads::total             30                       # Number of read requests responded to by this memory
system.realview.nvmem.bw_read::cpu.inst             8                       # Total read bandwidth from this memory (bytes/s)
system.realview.nvmem.bw_read::cpu.data             1                       # Total read bandwidth from this memory (bytes/s)
system.realview.nvmem.bw_read::total                8                       # Total read bandwidth from this memory (bytes/s)
system.realview.nvmem.bw_inst_read::cpu.inst            8                       # Instruction read bandwidth from this memory (bytes/s)
system.realview.nvmem.bw_inst_read::total            8                       # Instruction read bandwidth from this memory (bytes/s)
system.realview.nvmem.bw_total::cpu.inst            8                       # Total bandwidth to/from this memory (bytes/s)
system.realview.nvmem.bw_total::cpu.data            1                       # Total bandwidth to/from this memory (bytes/s)
system.realview.nvmem.bw_total::total               8                       # Total bandwidth to/from this memory (bytes/s)
system.cf0.dma_read_full_pages                    122                       # Number of full page size DMA reads (not PRD).
system.cf0.dma_read_bytes                      499712                       # Number of bytes transfered via DMA reads (not PRD).
system.cf0.dma_read_txs                           122                       # Number of DMA read transactions (not PRD).
system.cf0.dma_write_full_pages                  1666                       # Number of full page size DMA writes.
system.cf0.dma_write_bytes                    6826496                       # Number of bytes transfered via DMA writes.
system.cf0.dma_write_txs                         1669                       # Number of DMA write transactions.
system.cpu.branchPred.lookups               226505876                       # Number of BP lookups
system.cpu.branchPred.condPredicted         151515363                       # Number of conditional branches predicted
system.cpu.branchPred.condIncorrect          12247822                       # Number of conditional branches incorrect
system.cpu.branchPred.BTBLookups            159926869                       # Number of BTB lookups
system.cpu.branchPred.BTBHits               104610641                       # Number of BTB hits
system.cpu.branchPred.BTBCorrect                    0                       # Number of correct BTB predictions (this stat may not work properly.
system.cpu.branchPred.BTBHitPct             65.411548                       # BTB Hit Percentage
system.cpu.branchPred.usedRAS                31076851                       # Number of times the RAS was used to get a target.
system.cpu.branchPred.RASInCorrect             345252                       # Number of incorrect RAS predictions.
system.cpu_clk_domain.clock                       500                       # Clock period in ticks
system.cpu.dstage2_mmu.stage2_tlb.walker.walks            0                       # Table walker walks requested
system.cpu.dstage2_mmu.stage2_tlb.walker.walkRequestOrigin_Requested::Data            0                       # Table walker requests started/completed, data/inst
system.cpu.dstage2_mmu.stage2_tlb.walker.walkRequestOrigin_Requested::Inst            0                       # Table walker requests started/completed, data/inst
system.cpu.dstage2_mmu.stage2_tlb.walker.walkRequestOrigin_Requested::total            0                       # Table walker requests started/completed, data/inst
system.cpu.dstage2_mmu.stage2_tlb.walker.walkRequestOrigin_Completed::Data            0                       # Table walker requests started/completed, data/inst
system.cpu.dstage2_mmu.stage2_tlb.walker.walkRequestOrigin_Completed::Inst            0                       # Table walker requests started/completed, data/inst
system.cpu.dstage2_mmu.stage2_tlb.walker.walkRequestOrigin_Completed::total            0                       # Table walker requests started/completed, data/inst
system.cpu.dstage2_mmu.stage2_tlb.walker.walkRequestOrigin::total            0                       # Table walker requests started/completed, data/inst
system.cpu.dstage2_mmu.stage2_tlb.inst_hits            0                       # ITB inst hits
system.cpu.dstage2_mmu.stage2_tlb.inst_misses            0                       # ITB inst misses
system.cpu.dstage2_mmu.stage2_tlb.read_hits            0                       # DTB read hits
system.cpu.dstage2_mmu.stage2_tlb.read_misses            0                       # DTB read misses
system.cpu.dstage2_mmu.stage2_tlb.write_hits            0                       # DTB write hits
system.cpu.dstage2_mmu.stage2_tlb.write_misses            0                       # DTB write misses
system.cpu.dstage2_mmu.stage2_tlb.flush_tlb            0                       # Number of times complete TLB was flushed
system.cpu.dstage2_mmu.stage2_tlb.flush_tlb_mva            0                       # Number of times TLB was flushed by MVA
system.cpu.dstage2_mmu.stage2_tlb.flush_tlb_mva_asid            0                       # Number of times TLB was flushed by MVA & ASID
system.cpu.dstage2_mmu.stage2_tlb.flush_tlb_asid            0                       # Number of times TLB was flushed by ASID
system.cpu.dstage2_mmu.stage2_tlb.flush_entries            0                       # Number of entries that have been flushed from TLB
system.cpu.dstage2_mmu.stage2_tlb.align_faults            0                       # Number of TLB faults due to alignment restrictions
system.cpu.dstage2_mmu.stage2_tlb.prefetch_faults            0                       # Number of TLB faults due to prefetch
system.cpu.dstage2_mmu.stage2_tlb.domain_faults            0                       # Number of TLB faults due to domain restrictions
system.cpu.dstage2_mmu.stage2_tlb.perms_faults            0                       # Number of TLB faults due to permissions restrictions
system.cpu.dstage2_mmu.stage2_tlb.read_accesses            0                       # DTB read accesses
system.cpu.dstage2_mmu.stage2_tlb.write_accesses            0                       # DTB write accesses
system.cpu.dstage2_mmu.stage2_tlb.inst_accesses            0                       # ITB inst accesses
system.cpu.dstage2_mmu.stage2_tlb.hits              0                       # DTB hits
system.cpu.dstage2_mmu.stage2_tlb.misses            0                       # DTB misses
system.cpu.dstage2_mmu.stage2_tlb.accesses            0                       # DTB accesses
system.cpu.dtb.walker.walks                    931379                       # Table walker walks requested
system.cpu.dtb.walker.walksLong                931379                       # Table walker walks initiated with long descriptors
system.cpu.dtb.walker.walksLongTerminationLevel::Level2        16662                       # Level at which table walker walks with long descriptors terminate
system.cpu.dtb.walker.walksLongTerminationLevel::Level3       157071                       # Level at which table walker walks with long descriptors terminate
system.cpu.dtb.walker.walksSquashedBefore       405257                       # Table walks squashed before starting
system.cpu.dtb.walker.walkWaitTime::samples       526122                       # Table walker wait (enqueue to first request) latency
system.cpu.dtb.walker.walkWaitTime::mean  1688.949521                       # Table walker wait (enqueue to first request) latency
system.cpu.dtb.walker.walkWaitTime::stdev 11140.838823                       # Table walker wait (enqueue to first request) latency
system.cpu.dtb.walker.walkWaitTime::0-32767       521687     99.16%     99.16% # Table walker wait (enqueue to first request) latency
system.cpu.dtb.walker.walkWaitTime::32768-65535         1343      0.26%     99.41% # Table walker wait (enqueue to first request) latency
system.cpu.dtb.walker.walkWaitTime::65536-98303         1868      0.36%     99.77% # Table walker wait (enqueue to first request) latency
system.cpu.dtb.walker.walkWaitTime::98304-131071          570      0.11%     99.88% # Table walker wait (enqueue to first request) latency
system.cpu.dtb.walker.walkWaitTime::131072-163839          209      0.04%     99.92% # Table walker wait (enqueue to first request) latency
system.cpu.dtb.walker.walkWaitTime::163840-196607          174      0.03%     99.95% # Table walker wait (enqueue to first request) latency
system.cpu.dtb.walker.walkWaitTime::196608-229375           58      0.01%     99.96% # Table walker wait (enqueue to first request) latency
system.cpu.dtb.walker.walkWaitTime::229376-262143          108      0.02%     99.98% # Table walker wait (enqueue to first request) latency
system.cpu.dtb.walker.walkWaitTime::262144-294911            8      0.00%     99.98% # Table walker wait (enqueue to first request) latency
system.cpu.dtb.walker.walkWaitTime::294912-327679            3      0.00%     99.98% # Table walker wait (enqueue to first request) latency
system.cpu.dtb.walker.walkWaitTime::327680-360447           36      0.01%     99.99% # Table walker wait (enqueue to first request) latency
system.cpu.dtb.walker.walkWaitTime::360448-393215           45      0.01%    100.00% # Table walker wait (enqueue to first request) latency
system.cpu.dtb.walker.walkWaitTime::393216-425983           11      0.00%    100.00% # Table walker wait (enqueue to first request) latency
system.cpu.dtb.walker.walkWaitTime::425984-458751            2      0.00%    100.00% # Table walker wait (enqueue to first request) latency
system.cpu.dtb.walker.walkWaitTime::total       526122                       # Table walker wait (enqueue to first request) latency
system.cpu.dtb.walker.walkCompletionTime::samples       461527                       # Table walker service (enqueue to completion) latency
system.cpu.dtb.walker.walkCompletionTime::mean 19818.024831                       # Table walker service (enqueue to completion) latency
system.cpu.dtb.walker.walkCompletionTime::gmean 15276.155056                       # Table walker service (enqueue to completion) latency
system.cpu.dtb.walker.walkCompletionTime::stdev 15119.150483                       # Table walker service (enqueue to completion) latency
system.cpu.dtb.walker.walkCompletionTime::0-65535       458117     99.26%     99.26% # Table walker service (enqueue to completion) latency
system.cpu.dtb.walker.walkCompletionTime::65536-131071         2510      0.54%     99.80% # Table walker service (enqueue to completion) latency
system.cpu.dtb.walker.walkCompletionTime::131072-196607          628      0.14%     99.94% # Table walker service (enqueue to completion) latency
system.cpu.dtb.walker.walkCompletionTime::196608-262143          155      0.03%     99.97% # Table walker service (enqueue to completion) latency
system.cpu.dtb.walker.walkCompletionTime::262144-327679           55      0.01%     99.99% # Table walker service (enqueue to completion) latency
system.cpu.dtb.walker.walkCompletionTime::327680-393215           42      0.01%    100.00% # Table walker service (enqueue to completion) latency
system.cpu.dtb.walker.walkCompletionTime::393216-458751            7      0.00%    100.00% # Table walker service (enqueue to completion) latency
system.cpu.dtb.walker.walkCompletionTime::458752-524287           11      0.00%    100.00% # Table walker service (enqueue to completion) latency
system.cpu.dtb.walker.walkCompletionTime::524288-589823            2      0.00%    100.00% # Table walker service (enqueue to completion) latency
system.cpu.dtb.walker.walkCompletionTime::total       461527                       # Table walker service (enqueue to completion) latency
system.cpu.dtb.walker.walksPending::samples 768881581580                       # Table walker pending requests distribution
system.cpu.dtb.walker.walksPending::mean     0.740934                       # Table walker pending requests distribution
system.cpu.dtb.walker.walksPending::stdev     0.499994                       # Table walker pending requests distribution
system.cpu.dtb.walker.walksPending::0-1  767107299580     99.77%     99.77% # Table walker pending requests distribution
system.cpu.dtb.walker.walksPending::2-3     970542000      0.13%     99.90% # Table walker pending requests distribution
system.cpu.dtb.walker.walksPending::4-5     364225500      0.05%     99.94% # Table walker pending requests distribution
system.cpu.dtb.walker.walksPending::6-7     157799500      0.02%     99.96% # Table walker pending requests distribution
system.cpu.dtb.walker.walksPending::8-9     120916000      0.02%     99.98% # Table walker pending requests distribution
system.cpu.dtb.walker.walksPending::10-11     94826000      0.01%     99.99% # Table walker pending requests distribution
system.cpu.dtb.walker.walksPending::12-13     21620500      0.00%     99.99% # Table walker pending requests distribution
system.cpu.dtb.walker.walksPending::14-15     42242000      0.01%    100.00% # Table walker pending requests distribution
system.cpu.dtb.walker.walksPending::16-17      2110500      0.00%    100.00% # Table walker pending requests distribution
system.cpu.dtb.walker.walksPending::total 768881581580                       # Table walker pending requests distribution
system.cpu.dtb.walker.walkPageSizes::4K        157072     90.41%     90.41% # Table walker page sizes translated
system.cpu.dtb.walker.walkPageSizes::2M         16662      9.59%    100.00% # Table walker page sizes translated
system.cpu.dtb.walker.walkPageSizes::total       173734                       # Table walker page sizes translated
system.cpu.dtb.walker.walkRequestOrigin_Requested::Data       931379                       # Table walker requests started/completed, data/inst
system.cpu.dtb.walker.walkRequestOrigin_Requested::Inst            0                       # Table walker requests started/completed, data/inst
system.cpu.dtb.walker.walkRequestOrigin_Requested::total       931379                       # Table walker requests started/completed, data/inst
system.cpu.dtb.walker.walkRequestOrigin_Completed::Data       173734                       # Table walker requests started/completed, data/inst
system.cpu.dtb.walker.walkRequestOrigin_Completed::Inst            0                       # Table walker requests started/completed, data/inst
system.cpu.dtb.walker.walkRequestOrigin_Completed::total       173734                       # Table walker requests started/completed, data/inst
system.cpu.dtb.walker.walkRequestOrigin::total      1105113                       # Table walker requests started/completed, data/inst
system.cpu.dtb.inst_hits                            0                       # ITB inst hits
system.cpu.dtb.inst_misses                          0                       # ITB inst misses
system.cpu.dtb.read_hits                    171278986                       # DTB read hits
system.cpu.dtb.read_misses                     671795                       # DTB read misses
system.cpu.dtb.write_hits                   149102166                       # DTB write hits
system.cpu.dtb.write_misses                    259584                       # DTB write misses
system.cpu.dtb.flush_tlb                           10                       # Number of times complete TLB was flushed
system.cpu.dtb.flush_tlb_mva                        0                       # Number of times TLB was flushed by MVA
system.cpu.dtb.flush_tlb_mva_asid               40008                       # Number of times TLB was flushed by MVA & ASID
system.cpu.dtb.flush_tlb_asid                    1029                       # Number of times TLB was flushed by ASID
system.cpu.dtb.flush_entries                    73098                       # Number of entries that have been flushed from TLB
system.cpu.dtb.align_faults                       106                       # Number of TLB faults due to alignment restrictions
system.cpu.dtb.prefetch_faults                  10235                       # Number of TLB faults due to prefetch
system.cpu.dtb.domain_faults                        0                       # Number of TLB faults due to domain restrictions
system.cpu.dtb.perms_faults                     69082                       # Number of TLB faults due to permissions restrictions
system.cpu.dtb.read_accesses                171950781                       # DTB read accesses
system.cpu.dtb.write_accesses               149361750                       # DTB write accesses
system.cpu.dtb.inst_accesses                        0                       # ITB inst accesses
system.cpu.dtb.hits                         320381152                       # DTB hits
system.cpu.dtb.misses                          931379                       # DTB misses
system.cpu.dtb.accesses                     321312531                       # DTB accesses
system.cpu.istage2_mmu.stage2_tlb.walker.walks            0                       # Table walker walks requested
system.cpu.istage2_mmu.stage2_tlb.walker.walkRequestOrigin_Requested::Data            0                       # Table walker requests started/completed, data/inst
system.cpu.istage2_mmu.stage2_tlb.walker.walkRequestOrigin_Requested::Inst            0                       # Table walker requests started/completed, data/inst
system.cpu.istage2_mmu.stage2_tlb.walker.walkRequestOrigin_Requested::total            0                       # Table walker requests started/completed, data/inst
system.cpu.istage2_mmu.stage2_tlb.walker.walkRequestOrigin_Completed::Data            0                       # Table walker requests started/completed, data/inst
system.cpu.istage2_mmu.stage2_tlb.walker.walkRequestOrigin_Completed::Inst            0                       # Table walker requests started/completed, data/inst
system.cpu.istage2_mmu.stage2_tlb.walker.walkRequestOrigin_Completed::total            0                       # Table walker requests started/completed, data/inst
system.cpu.istage2_mmu.stage2_tlb.walker.walkRequestOrigin::total            0                       # Table walker requests started/completed, data/inst
system.cpu.istage2_mmu.stage2_tlb.inst_hits            0                       # ITB inst hits
system.cpu.istage2_mmu.stage2_tlb.inst_misses            0                       # ITB inst misses
system.cpu.istage2_mmu.stage2_tlb.read_hits            0                       # DTB read hits
system.cpu.istage2_mmu.stage2_tlb.read_misses            0                       # DTB read misses
system.cpu.istage2_mmu.stage2_tlb.write_hits            0                       # DTB write hits
system.cpu.istage2_mmu.stage2_tlb.write_misses            0                       # DTB write misses
system.cpu.istage2_mmu.stage2_tlb.flush_tlb            0                       # Number of times complete TLB was flushed
system.cpu.istage2_mmu.stage2_tlb.flush_tlb_mva            0                       # Number of times TLB was flushed by MVA
system.cpu.istage2_mmu.stage2_tlb.flush_tlb_mva_asid            0                       # Number of times TLB was flushed by MVA & ASID
system.cpu.istage2_mmu.stage2_tlb.flush_tlb_asid            0                       # Number of times TLB was flushed by ASID
system.cpu.istage2_mmu.stage2_tlb.flush_entries            0                       # Number of entries that have been flushed from TLB
system.cpu.istage2_mmu.stage2_tlb.align_faults            0                       # Number of TLB faults due to alignment restrictions
system.cpu.istage2_mmu.stage2_tlb.prefetch_faults            0                       # Number of TLB faults due to prefetch
system.cpu.istage2_mmu.stage2_tlb.domain_faults            0                       # Number of TLB faults due to domain restrictions
system.cpu.istage2_mmu.stage2_tlb.perms_faults            0                       # Number of TLB faults due to permissions restrictions
system.cpu.istage2_mmu.stage2_tlb.read_accesses            0                       # DTB read accesses
system.cpu.istage2_mmu.stage2_tlb.write_accesses            0                       # DTB write accesses
system.cpu.istage2_mmu.stage2_tlb.inst_accesses            0                       # ITB inst accesses
system.cpu.istage2_mmu.stage2_tlb.hits              0                       # DTB hits
system.cpu.istage2_mmu.stage2_tlb.misses            0                       # DTB misses
system.cpu.istage2_mmu.stage2_tlb.accesses            0                       # DTB accesses
system.cpu.itb.walker.walks                    161841                       # Table walker walks requested
system.cpu.itb.walker.walksLong                161841                       # Table walker walks initiated with long descriptors
system.cpu.itb.walker.walksLongTerminationLevel::Level2         1421                       # Level at which table walker walks with long descriptors terminate
system.cpu.itb.walker.walksLongTerminationLevel::Level3       122616                       # Level at which table walker walks with long descriptors terminate
system.cpu.itb.walker.walksSquashedBefore        17088                       # Table walks squashed before starting
system.cpu.itb.walker.walkWaitTime::samples       144753                       # Table walker wait (enqueue to first request) latency
system.cpu.itb.walker.walkWaitTime::mean   980.521993                       # Table walker wait (enqueue to first request) latency
system.cpu.itb.walker.walkWaitTime::stdev  6808.510178                       # Table walker wait (enqueue to first request) latency
system.cpu.itb.walker.walkWaitTime::0-32767       144225     99.64%     99.64% # Table walker wait (enqueue to first request) latency
system.cpu.itb.walker.walkWaitTime::32768-65535          131      0.09%     99.73% # Table walker wait (enqueue to first request) latency
system.cpu.itb.walker.walkWaitTime::65536-98303          321      0.22%     99.95% # Table walker wait (enqueue to first request) latency
system.cpu.itb.walker.walkWaitTime::98304-131071           37      0.03%     99.97% # Table walker wait (enqueue to first request) latency
system.cpu.itb.walker.walkWaitTime::131072-163839           13      0.01%     99.98% # Table walker wait (enqueue to first request) latency
system.cpu.itb.walker.walkWaitTime::163840-196607           10      0.01%     99.99% # Table walker wait (enqueue to first request) latency
system.cpu.itb.walker.walkWaitTime::196608-229375            6      0.00%     99.99% # Table walker wait (enqueue to first request) latency
system.cpu.itb.walker.walkWaitTime::229376-262143            1      0.00%     99.99% # Table walker wait (enqueue to first request) latency
system.cpu.itb.walker.walkWaitTime::262144-294911            5      0.00%    100.00% # Table walker wait (enqueue to first request) latency
system.cpu.itb.walker.walkWaitTime::327680-360447            1      0.00%    100.00% # Table walker wait (enqueue to first request) latency
system.cpu.itb.walker.walkWaitTime::360448-393215            1      0.00%    100.00% # Table walker wait (enqueue to first request) latency
system.cpu.itb.walker.walkWaitTime::425984-458751            2      0.00%    100.00% # Table walker wait (enqueue to first request) latency
system.cpu.itb.walker.walkWaitTime::total       144753                       # Table walker wait (enqueue to first request) latency
system.cpu.itb.walker.walkCompletionTime::samples       141125                       # Table walker service (enqueue to completion) latency
system.cpu.itb.walker.walkCompletionTime::mean 24337.182009                       # Table walker service (enqueue to completion) latency
system.cpu.itb.walker.walkCompletionTime::gmean 19877.340891                       # Table walker service (enqueue to completion) latency
system.cpu.itb.walker.walkCompletionTime::stdev 15937.232369                       # Table walker service (enqueue to completion) latency
system.cpu.itb.walker.walkCompletionTime::0-32767       134420     95.25%     95.25% # Table walker service (enqueue to completion) latency
system.cpu.itb.walker.walkCompletionTime::32768-65535         4577      3.24%     98.49% # Table walker service (enqueue to completion) latency
system.cpu.itb.walker.walkCompletionTime::65536-98303         1336      0.95%     99.44% # Table walker service (enqueue to completion) latency
system.cpu.itb.walker.walkCompletionTime::98304-131071          512      0.36%     99.80% # Table walker service (enqueue to completion) latency
system.cpu.itb.walker.walkCompletionTime::131072-163839           95      0.07%     99.87% # Table walker service (enqueue to completion) latency
system.cpu.itb.walker.walkCompletionTime::163840-196607           88      0.06%     99.93% # Table walker service (enqueue to completion) latency
system.cpu.itb.walker.walkCompletionTime::196608-229375           22      0.02%     99.95% # Table walker service (enqueue to completion) latency
system.cpu.itb.walker.walkCompletionTime::229376-262143           28      0.02%     99.97% # Table walker service (enqueue to completion) latency
system.cpu.itb.walker.walkCompletionTime::262144-294911           15      0.01%     99.98% # Table walker service (enqueue to completion) latency
system.cpu.itb.walker.walkCompletionTime::294912-327679           14      0.01%     99.99% # Table walker service (enqueue to completion) latency
system.cpu.itb.walker.walkCompletionTime::327680-360447            9      0.01%     99.99% # Table walker service (enqueue to completion) latency
system.cpu.itb.walker.walkCompletionTime::360448-393215            7      0.00%    100.00% # Table walker service (enqueue to completion) latency
system.cpu.itb.walker.walkCompletionTime::393216-425983            1      0.00%    100.00% # Table walker service (enqueue to completion) latency
system.cpu.itb.walker.walkCompletionTime::458752-491519            1      0.00%    100.00% # Table walker service (enqueue to completion) latency
system.cpu.itb.walker.walkCompletionTime::total       141125                       # Table walker service (enqueue to completion) latency
system.cpu.itb.walker.walksPending::samples 657209390884                       # Table walker pending requests distribution
system.cpu.itb.walker.walksPending::mean     0.938693                       # Table walker pending requests distribution
system.cpu.itb.walker.walksPending::stdev     0.240123                       # Table walker pending requests distribution
system.cpu.itb.walker.walksPending::0     40327296652      6.14%      6.14% # Table walker pending requests distribution
system.cpu.itb.walker.walksPending::1    616846868232     93.86%     99.99% # Table walker pending requests distribution
system.cpu.itb.walker.walksPending::2        34699000      0.01%    100.00% # Table walker pending requests distribution
system.cpu.itb.walker.walksPending::3          527000      0.00%    100.00% # Table walker pending requests distribution
system.cpu.itb.walker.walksPending::total 657209390884                       # Table walker pending requests distribution
system.cpu.itb.walker.walkPageSizes::4K        122616     98.85%     98.85% # Table walker page sizes translated
system.cpu.itb.walker.walkPageSizes::2M          1421      1.15%    100.00% # Table walker page sizes translated
system.cpu.itb.walker.walkPageSizes::total       124037                       # Table walker page sizes translated
system.cpu.itb.walker.walkRequestOrigin_Requested::Data            0                       # Table walker requests started/completed, data/inst
system.cpu.itb.walker.walkRequestOrigin_Requested::Inst       161841                       # Table walker requests started/completed, data/inst
system.cpu.itb.walker.walkRequestOrigin_Requested::total       161841                       # Table walker requests started/completed, data/inst
system.cpu.itb.walker.walkRequestOrigin_Completed::Data            0                       # Table walker requests started/completed, data/inst
system.cpu.itb.walker.walkRequestOrigin_Completed::Inst       124037                       # Table walker requests started/completed, data/inst
system.cpu.itb.walker.walkRequestOrigin_Completed::total       124037                       # Table walker requests started/completed, data/inst
system.cpu.itb.walker.walkRequestOrigin::total       285878                       # Table walker requests started/completed, data/inst
system.cpu.itb.inst_hits                    360168043                       # ITB inst hits
system.cpu.itb.inst_misses                     161841                       # ITB inst misses
system.cpu.itb.read_hits                            0                       # DTB read hits
system.cpu.itb.read_misses                          0                       # DTB read misses
system.cpu.itb.write_hits                           0                       # DTB write hits
system.cpu.itb.write_misses                         0                       # DTB write misses
system.cpu.itb.flush_tlb                           10                       # Number of times complete TLB was flushed
system.cpu.itb.flush_tlb_mva                        0                       # Number of times TLB was flushed by MVA
system.cpu.itb.flush_tlb_mva_asid               40008                       # Number of times TLB was flushed by MVA & ASID
system.cpu.itb.flush_tlb_asid                    1029                       # Number of times TLB was flushed by ASID
system.cpu.itb.flush_entries                    53745                       # Number of entries that have been flushed from TLB
system.cpu.itb.align_faults                         0                       # Number of TLB faults due to alignment restrictions
system.cpu.itb.prefetch_faults                      0                       # Number of TLB faults due to prefetch
system.cpu.itb.domain_faults                        0                       # Number of TLB faults due to domain restrictions
system.cpu.itb.perms_faults                    372581                       # Number of TLB faults due to permissions restrictions
system.cpu.itb.read_accesses                        0                       # DTB read accesses
system.cpu.itb.write_accesses                       0                       # DTB write accesses
system.cpu.itb.inst_accesses                360329884                       # ITB inst accesses
system.cpu.itb.hits                         360168043                       # DTB hits
system.cpu.itb.misses                          161841                       # DTB misses
system.cpu.itb.accesses                     360329884                       # DTB accesses
system.cpu.numCycles                       1576983833                       # number of cpu cycles simulated
system.cpu.numWorkItemsStarted                      0                       # number of work items this cpu started
system.cpu.numWorkItemsCompleted                    0                       # number of work items this cpu completed
system.cpu.fetch.icacheStallCycles          648826167                       # Number of cycles fetch is stalled on an Icache miss
system.cpu.fetch.Insts                     1010661506                       # Number of instructions fetch has processed
system.cpu.fetch.Branches                   226505876                       # Number of branches that fetch encountered
system.cpu.fetch.predictedBranches          135687492                       # Number of branches that fetch has predicted taken
system.cpu.fetch.Cycles                     852638415                       # Number of cycles fetch has run and was not squashing or blocked
system.cpu.fetch.SquashCycles                26165882                       # Number of cycles fetch has spent squashing
system.cpu.fetch.TlbCycles                    3403646                       # Number of cycles fetch has spent waiting for tlb
system.cpu.fetch.MiscStallCycles                27150                       # Number of cycles fetch has spent waiting on interrupts, or bad addresses, or out of MSHRs
system.cpu.fetch.PendingTrapStallCycles       9234109                       # Number of stall cycles due to pending traps
system.cpu.fetch.PendingQuiesceStallCycles      1027275                       # Number of stall cycles due to pending quiesce instructions
system.cpu.fetch.IcacheWaitRetryStallCycles          386                       # Number of stall cycles due to full MSHR
system.cpu.fetch.CacheLines                 359779044                       # Number of cache lines fetched
system.cpu.fetch.IcacheSquashes               6134765                       # Number of outstanding Icache misses that were squashed
system.cpu.fetch.ItlbSquashes                   47734                       # Number of outstanding ITLB misses that were squashed
system.cpu.fetch.rateDist::samples         1528240089                       # Number of instructions fetched each cycle (Total)
system.cpu.fetch.rateDist::mean              0.774898                       # Number of instructions fetched each cycle (Total)
system.cpu.fetch.rateDist::stdev             1.161407                       # Number of instructions fetched each cycle (Total)
system.cpu.fetch.rateDist::underflows               0      0.00%      0.00% # Number of instructions fetched each cycle (Total)
system.cpu.fetch.rateDist::0                965897706     63.20%     63.20% # Number of instructions fetched each cycle (Total)
system.cpu.fetch.rateDist::1                215974848     14.13%     77.34% # Number of instructions fetched each cycle (Total)
system.cpu.fetch.rateDist::2                 70846962      4.64%     81.97% # Number of instructions fetched each cycle (Total)
system.cpu.fetch.rateDist::3                275520573     18.03%    100.00% # Number of instructions fetched each cycle (Total)
system.cpu.fetch.rateDist::overflows                0      0.00%    100.00% # Number of instructions fetched each cycle (Total)
system.cpu.fetch.rateDist::min_value                0                       # Number of instructions fetched each cycle (Total)
system.cpu.fetch.rateDist::max_value                3                       # Number of instructions fetched each cycle (Total)
system.cpu.fetch.rateDist::total           1528240089                       # Number of instructions fetched each cycle (Total)
system.cpu.fetch.branchRate                  0.143632                       # Number of branch fetches per cycle
system.cpu.fetch.rate                        0.640883                       # Number of inst fetches per cycle
system.cpu.decode.IdleCycles                527342057                       # Number of cycles decode is idle
system.cpu.decode.BlockedCycles             504093722                       # Number of cycles decode is blocked
system.cpu.decode.RunCycles                 436470729                       # Number of cycles decode is running
system.cpu.decode.UnblockCycles              51063982                       # Number of cycles decode is unblocking
system.cpu.decode.SquashCycles                9269599                       # Number of cycles decode is squashing
system.cpu.decode.BranchResolved             33921165                       # Number of times decode resolved a branch
system.cpu.decode.BranchMispred               3872416                       # Number of times decode detected a branch misprediction
system.cpu.decode.DecodedInsts             1095869891                       # Number of instructions handled by decode
system.cpu.decode.SquashedInsts              29092135                       # Number of squashed instructions handled by decode
system.cpu.rename.SquashCycles                9269599                       # Number of cycles rename is squashing
system.cpu.rename.IdleCycles                572608237                       # Number of cycles rename is idle
system.cpu.rename.BlockCycles                46122541                       # Number of cycles rename is blocking
system.cpu.rename.serializeStallCycles      363160924                       # count of cycles rename stalled for serializing inst
system.cpu.rename.RunCycles                 442135288                       # Number of cycles rename is running
system.cpu.rename.UnblockCycles              94943500                       # Number of cycles rename is unblocking
system.cpu.rename.RenamedInsts             1076024490                       # Number of instructions processed by rename
system.cpu.rename.SquashedInsts               6785579                       # Number of squashed instructions processed by rename
system.cpu.rename.ROBFullEvents               4940621                       # Number of times rename has blocked due to ROB full
system.cpu.rename.IQFullEvents                 314117                       # Number of times rename has blocked due to IQ full
system.cpu.rename.LQFullEvents                 587788                       # Number of times rename has blocked due to LQ full
system.cpu.rename.SQFullEvents               42830435                       # Number of times rename has blocked due to SQ full
system.cpu.rename.FullRegisterEvents            21754                       # Number of times there has been no free registers
system.cpu.rename.RenamedOperands          1023810702                       # Number of destination operands rename has renamed
system.cpu.rename.RenameLookups            1659713955                       # Number of register rename lookups that rename has made
system.cpu.rename.int_rename_lookups       1272840679                       # Number of integer rename lookups
system.cpu.rename.fp_rename_lookups           1685189                       # Number of floating rename lookups
system.cpu.rename.CommittedMaps             958043687                       # Number of HB maps that are committed
system.cpu.rename.UndoneMaps                 65767012                       # Number of HB maps that are undone due to squashing
system.cpu.rename.serializingInsts           27437914                       # count of serializing insts renamed
system.cpu.rename.tempSerializingInsts       23747073                       # count of temporary serializing insts renamed
system.cpu.rename.skidInsts                 104751050                       # count of insts added to the skid buffer
system.cpu.memDep0.insertedLoads            175241778                       # Number of loads inserted to the mem dependence unit.
system.cpu.memDep0.insertedStores           152679763                       # Number of stores inserted to the mem dependence unit.
system.cpu.memDep0.conflictingLoads           9977994                       # Number of conflicting loads.
system.cpu.memDep0.conflictingStores          9053000                       # Number of conflicting stores.
system.cpu.iq.iqInstsAdded                 1040458161                       # Number of instructions added to the IQ (excludes non-spec)
system.cpu.iq.iqNonSpecInstsAdded            27741753                       # Number of non-speculative instructions added to the IQ
system.cpu.iq.iqInstsIssued                1056586315                       # Number of instructions issued
system.cpu.iq.iqSquashedInstsIssued           3302783                       # Number of squashed instructions issued
system.cpu.iq.iqSquashedInstsExamined        53612674                       # Number of squashed instructions iterated over during squash; mainly for profiling
system.cpu.iq.iqSquashedOperandsExamined     33630584                       # Number of squashed operands that are examined and possibly removed from graph
system.cpu.iq.iqSquashedNonSpecRemoved         315276                       # Number of squashed non-spec instructions that were removed
system.cpu.iq.issued_per_cycle::samples    1528240089                       # Number of insts issued each cycle
system.cpu.iq.issued_per_cycle::mean         0.691375                       # Number of insts issued each cycle
system.cpu.iq.issued_per_cycle::stdev        0.927907                       # Number of insts issued each cycle
system.cpu.iq.issued_per_cycle::underflows            0      0.00%      0.00% # Number of insts issued each cycle
system.cpu.iq.issued_per_cycle::0           873840021     57.18%     57.18% # Number of insts issued each cycle
system.cpu.iq.issued_per_cycle::1           338263818     22.13%     79.31% # Number of insts issued each cycle
system.cpu.iq.issued_per_cycle::2           236701790     15.49%     94.80% # Number of insts issued each cycle
system.cpu.iq.issued_per_cycle::3            72838134      4.77%     99.57% # Number of insts issued each cycle
system.cpu.iq.issued_per_cycle::4             6577115      0.43%    100.00% # Number of insts issued each cycle
system.cpu.iq.issued_per_cycle::5               19211      0.00%    100.00% # Number of insts issued each cycle
system.cpu.iq.issued_per_cycle::6                   0      0.00%    100.00% # Number of insts issued each cycle
system.cpu.iq.issued_per_cycle::7                   0      0.00%    100.00% # Number of insts issued each cycle
system.cpu.iq.issued_per_cycle::8                   0      0.00%    100.00% # Number of insts issued each cycle
[...]
system.iocache.demand_avg_miss_latency::realview.ide 219415.440839                       # average overall miss latency
system.iocache.demand_avg_miss_latency::total 219086.743196                       # average overall miss latency
system.iocache.overall_avg_miss_latency::realview.ethernet       146650                       # average overall miss latency
system.iocache.overall_avg_miss_latency::realview.ide 219415.440839                       # average overall miss latency
system.iocache.overall_avg_miss_latency::total 219086.743196                       # average overall miss latency
system.iocache.blocked_cycles::no_mshrs        225873                       # number of cycles access was blocked
system.iocache.blocked_cycles::no_targets            0                       # number of cycles access was blocked
system.iocache.blocked::no_mshrs                27588                       # number of cycles access was blocked
system.iocache.blocked::no_targets                  0                       # number of cycles access was blocked
system.iocache.avg_blocked_cycles::no_mshrs     8.187364                       # average number of cycles each access was blocked
system.iocache.avg_blocked_cycles::no_targets          nan                       # average number of cycles each access was blocked
system.iocache.fast_writes                          0                       # number of fast writes performed
system.iocache.cache_copies                         0                       # number of cache copies performed
system.iocache.writebacks::writebacks          106631                       # number of writebacks
system.iocache.writebacks::total               106631                       # number of writebacks
system.iocache.ReadReq_mshr_misses::realview.ethernet           37                       # number of ReadReq MSHR misses
system.iocache.ReadReq_mshr_misses::realview.ide         8815                       # number of ReadReq MSHR misses
system.iocache.ReadReq_mshr_misses::total         8852                       # number of ReadReq MSHR misses
system.iocache.WriteReq_mshr_misses::realview.ethernet            3                       # number of WriteReq MSHR misses
system.iocache.WriteReq_mshr_misses::total            3                       # number of WriteReq MSHR misses
system.iocache.WriteInvalidateReq_mshr_misses::realview.ide       106664                       # number of WriteInvalidateReq MSHR misses
system.iocache.WriteInvalidateReq_mshr_misses::total       106664                       # number of WriteInvalidateReq MSHR misses
system.iocache.demand_mshr_misses::realview.ethernet           40                       # number of demand (read+write) MSHR misses
system.iocache.demand_mshr_misses::realview.ide         8815                       # number of demand (read+write) MSHR misses
system.iocache.demand_mshr_misses::total         8855                       # number of demand (read+write) MSHR misses
system.iocache.overall_mshr_misses::realview.ethernet           40                       # number of overall MSHR misses
system.iocache.overall_mshr_misses::realview.ide         8815                       # number of overall MSHR misses
system.iocache.overall_mshr_misses::total         8855                       # number of overall MSHR misses
system.iocache.ReadReq_mshr_miss_latency::realview.ethernet      3603000                       # number of ReadReq MSHR miss cycles
system.iocache.ReadReq_mshr_miss_latency::realview.ide   1475641121                       # number of ReadReq MSHR miss cycles
system.iocache.ReadReq_mshr_miss_latency::total   1479244121                       # number of ReadReq MSHR miss cycles
system.iocache.WriteReq_mshr_miss_latency::realview.ethernet       183000                       # number of WriteReq MSHR miss cycles
system.iocache.WriteReq_mshr_miss_latency::total       183000                       # number of WriteReq MSHR miss cycles
system.iocache.WriteInvalidateReq_mshr_miss_latency::realview.ide  23352302242                       # number of WriteInvalidateReq MSHR miss cycles
system.iocache.WriteInvalidateReq_mshr_miss_latency::total  23352302242                       # number of WriteInvalidateReq MSHR miss cycles
system.iocache.demand_mshr_miss_latency::realview.ethernet      3786000                       # number of demand (read+write) MSHR miss cycles
system.iocache.demand_mshr_miss_latency::realview.ide   1475641121                       # number of demand (read+write) MSHR miss cycles
system.iocache.demand_mshr_miss_latency::total   1479427121                       # number of demand (read+write) MSHR miss cycles
system.iocache.overall_mshr_miss_latency::realview.ethernet      3786000                       # number of overall MSHR miss cycles
system.iocache.overall_mshr_miss_latency::realview.ide   1475641121                       # number of overall MSHR miss cycles
system.iocache.overall_mshr_miss_latency::total   1479427121                       # number of overall MSHR miss cycles
system.iocache.ReadReq_mshr_miss_rate::realview.ethernet            1                       # mshr miss rate for ReadReq accesses
system.iocache.ReadReq_mshr_miss_rate::realview.ide            1                       # mshr miss rate for ReadReq accesses
system.iocache.ReadReq_mshr_miss_rate::total            1                       # mshr miss rate for ReadReq accesses
system.iocache.WriteReq_mshr_miss_rate::realview.ethernet            1                       # mshr miss rate for WriteReq accesses
system.iocache.WriteReq_mshr_miss_rate::total            1                       # mshr miss rate for WriteReq accesses
system.iocache.WriteInvalidateReq_mshr_miss_rate::realview.ide            1                       # mshr miss rate for WriteInvalidateReq accesses
system.iocache.WriteInvalidateReq_mshr_miss_rate::total            1                       # mshr miss rate for WriteInvalidateReq accesses
system.iocache.demand_mshr_miss_rate::realview.ethernet            1                       # mshr miss rate for demand accesses
system.iocache.demand_mshr_miss_rate::realview.ide            1                       # mshr miss rate for demand accesses
system.iocache.demand_mshr_miss_rate::total            1                       # mshr miss rate for demand accesses
system.iocache.overall_mshr_miss_rate::realview.ethernet            1                       # mshr miss rate for overall accesses
system.iocache.overall_mshr_miss_rate::realview.ide            1                       # mshr miss rate for overall accesses
system.iocache.overall_mshr_miss_rate::total            1                       # mshr miss rate for overall accesses
system.iocache.ReadReq_avg_mshr_miss_latency::realview.ethernet 97378.378378                       # average ReadReq mshr miss latency
system.iocache.ReadReq_avg_mshr_miss_latency::realview.ide 167401.148157                       # average ReadReq mshr miss latency
system.iocache.ReadReq_avg_mshr_miss_latency::total 167108.463737                       # average ReadReq mshr miss latency
system.iocache.WriteReq_avg_mshr_miss_latency::realview.ethernet        61000                       # average WriteReq mshr miss latency
system.iocache.WriteReq_avg_mshr_miss_latency::total        61000                       # average WriteReq mshr miss latency
system.iocache.WriteInvalidateReq_avg_mshr_miss_latency::realview.ide 218933.306851                       # average WriteInvalidateReq mshr miss latency
system.iocache.WriteInvalidateReq_avg_mshr_miss_latency::total 218933.306851                       # average WriteInvalidateReq mshr miss latency
system.iocache.demand_avg_mshr_miss_latency::realview.ethernet        94650                       # average overall mshr miss latency
system.iocache.demand_avg_mshr_miss_latency::realview.ide 167401.148157                       # average overall mshr miss latency
system.iocache.demand_avg_mshr_miss_latency::total 167072.515076                       # average overall mshr miss latency
system.iocache.overall_avg_mshr_miss_latency::realview.ethernet        94650                       # average overall mshr miss latency
system.iocache.overall_avg_mshr_miss_latency::realview.ide 167401.148157                       # average overall mshr miss latency
system.iocache.overall_avg_mshr_miss_latency::total 167072.515076                       # average overall mshr miss latency
system.iocache.no_allocate_misses                   0                       # Number of misses that were no-allocate
system.membus.trans_dist::ReadReq              411277                       # Transaction distribution
system.membus.trans_dist::ReadResp             411277                       # Transaction distribution
system.membus.trans_dist::WriteReq              33858                       # Transaction distribution
system.membus.trans_dist::WriteResp             33858                       # Transaction distribution
system.membus.trans_dist::Writeback           1089351                       # Transaction distribution
system.membus.trans_dist::WriteInvalidateReq       602368                       # Transaction distribution
system.membus.trans_dist::WriteInvalidateResp       602368                       # Transaction distribution
system.membus.trans_dist::UpgradeReq            35261                       # Transaction distribution
system.membus.trans_dist::SCUpgradeReq              2                       # Transaction distribution
system.membus.trans_dist::UpgradeResp           35263                       # Transaction distribution
system.membus.trans_dist::ReadExReq            417183                       # Transaction distribution
system.membus.trans_dist::ReadExResp           417183                       # Transaction distribution
system.membus.pkt_count_system.cpu.l2cache.mem_side::system.bridge.slave       123190                       # Packet count per connected master and slave (bytes)
system.membus.pkt_count_system.cpu.l2cache.mem_side::system.realview.nvmem.port           60                       # Packet count per connected master and slave (bytes)
system.membus.pkt_count_system.cpu.l2cache.mem_side::system.realview.gic.pio         6858                       # Packet count per connected master and slave (bytes)
system.membus.pkt_count_system.cpu.l2cache.mem_side::system.physmem.port      3620810                       # Packet count per connected master and slave (bytes)
system.membus.pkt_count_system.cpu.l2cache.mem_side::total      3750918                       # Packet count per connected master and slave (bytes)
system.membus.pkt_count_system.iocache.mem_side::system.physmem.port       335177                       # Packet count per connected master and slave (bytes)
system.membus.pkt_count_system.iocache.mem_side::total       335177                       # Packet count per connected master and slave (bytes)
system.membus.pkt_count::total                4086095                       # Packet count per connected master and slave (bytes)
system.membus.pkt_size_system.cpu.l2cache.mem_side::system.bridge.slave       156320                       # Cumulative packet size per connected master and slave (bytes)
system.membus.pkt_size_system.cpu.l2cache.mem_side::system.realview.nvmem.port          436                       # Cumulative packet size per connected master and slave (bytes)
system.membus.pkt_size_system.cpu.l2cache.mem_side::system.realview.gic.pio        13716                       # Cumulative packet size per connected master and slave (bytes)
system.membus.pkt_size_system.cpu.l2cache.mem_side::system.physmem.port    143869516                       # Cumulative packet size per connected master and slave (bytes)
system.membus.pkt_size_system.cpu.l2cache.mem_side::total    144039988                       # Cumulative packet size per connected master and slave (bytes)
system.membus.pkt_size_system.iocache.mem_side::system.physmem.port     14058112                       # Cumulative packet size per connected master and slave (bytes)
system.membus.pkt_size_system.iocache.mem_side::total     14058112                       # Cumulative packet size per connected master and slave (bytes)
system.membus.pkt_size::total               158098100                       # Cumulative packet size per connected master and slave (bytes)
system.membus.snoops                             3154                       # Total snoops (count)
system.membus.snoop_fanout::samples           2500418                       # Request fanout histogram
system.membus.snoop_fanout::mean                    1                       # Request fanout histogram
system.membus.snoop_fanout::stdev                   0                       # Request fanout histogram
system.membus.snoop_fanout::underflows              0      0.00%      0.00% # Request fanout histogram
system.membus.snoop_fanout::0                       0      0.00%      0.00% # Request fanout histogram
system.membus.snoop_fanout::1                 2500418    100.00%    100.00% # Request fanout histogram
system.membus.snoop_fanout::2                       0      0.00%    100.00% # Request fanout histogram
system.membus.snoop_fanout::overflows               0      0.00%    100.00% # Request fanout histogram
system.membus.snoop_fanout::min_value               1                       # Request fanout histogram
system.membus.snoop_fanout::max_value               1                       # Request fanout histogram
system.membus.snoop_fanout::total             2500418                       # Request fanout histogram
system.membus.reqLayer0.occupancy           109711500                       # Layer occupancy (ticks)
system.membus.reqLayer0.utilization               0.0                       # Layer utilization (%)
system.membus.reqLayer1.occupancy               42500                       # Layer occupancy (ticks)
system.membus.reqLayer1.utilization               0.0                       # Layer utilization (%)
system.membus.reqLayer2.occupancy             5440999                       # Layer occupancy (ticks)
system.membus.reqLayer2.utilization               0.0                       # Layer utilization (%)
system.membus.reqLayer5.occupancy         16316164477                       # Layer occupancy (ticks)
system.membus.reqLayer5.utilization               0.0                       # Layer utilization (%)
system.membus.respLayer2.occupancy         7830132924                       # Layer occupancy (ticks)
system.membus.respLayer2.utilization              0.0                       # Layer utilization (%)
system.membus.respLayer3.occupancy          186594798                       # Layer occupancy (ticks)
system.membus.respLayer3.utilization              0.0                       # Layer utilization (%)
system.realview.ethernet.txBytes                  966                       # Bytes Transmitted
system.realview.ethernet.txPackets                  3                       # Number of Packets Transmitted
system.realview.ethernet.txIpChecksums              0                       # Number of tx IP Checksums done by device
system.realview.ethernet.txTcpChecksums             0                       # Number of tx TCP Checksums done by device
system.realview.ethernet.txUdpChecksums             0                       # Number of tx UDP Checksums done by device
system.realview.ethernet.descDMAReads               0                       # Number of descriptors the device read w/ DMA
system.realview.ethernet.descDMAWrites              0                       # Number of descriptors the device wrote w/ DMA
system.realview.ethernet.descDmaReadBytes            0                       # number of descriptor bytes read w/ DMA
system.realview.ethernet.descDmaWriteBytes            0                       # number of descriptor bytes write w/ DMA
system.realview.ethernet.totBandwidth             151                       # Total Bandwidth (bits/s)
system.realview.ethernet.totPackets                 3                       # Total Packets
system.realview.ethernet.totBytes                 966                       # Total Bytes
system.realview.ethernet.totPPS                     0                       # Total Tranmission Rate (packets/s)
system.realview.ethernet.txBandwidth              151                       # Transmit Bandwidth (bits/s)
system.realview.ethernet.txPPS                      0                       # Packet Tranmission Rate (packets/s)
system.realview.ethernet.postedSwi                  0                       # number of software interrupts posted to CPU
system.realview.ethernet.coalescedSwi               0                       # average number of Swi's coalesced into each post
system.realview.ethernet.totalSwi                   0                       # total number of Swi written to ISR
system.realview.ethernet.postedRxIdle               0                       # number of rxIdle interrupts posted to CPU
system.realview.ethernet.coalescedRxIdle            0                       # average number of RxIdle's coalesced into each post
system.realview.ethernet.totalRxIdle                0                       # total number of RxIdle written to ISR
system.realview.ethernet.postedRxOk                 0                       # number of RxOk interrupts posted to CPU
system.realview.ethernet.coalescedRxOk              0                       # average number of RxOk's coalesced into each post
system.realview.ethernet.totalRxOk                  0                       # total number of RxOk written to ISR
system.realview.ethernet.postedRxDesc               0                       # number of RxDesc interrupts posted to CPU
system.realview.ethernet.coalescedRxDesc            0                       # average number of RxDesc's coalesced into each post
system.realview.ethernet.totalRxDesc                0                       # total number of RxDesc written to ISR
system.realview.ethernet.postedTxOk                 0                       # number of TxOk interrupts posted to CPU
system.realview.ethernet.coalescedTxOk              0                       # average number of TxOk's coalesced into each post
system.realview.ethernet.totalTxOk                  0                       # total number of TxOk written to ISR
system.realview.ethernet.postedTxIdle               0                       # number of TxIdle interrupts posted to CPU
system.realview.ethernet.coalescedTxIdle            0                       # average number of TxIdle's coalesced into each post
system.realview.ethernet.totalTxIdle                0                       # total number of TxIdle written to ISR
system.realview.ethernet.postedTxDesc               0                       # number of TxDesc interrupts posted to CPU
system.realview.ethernet.coalescedTxDesc            0                       # average number of TxDesc's coalesced into each post
system.realview.ethernet.totalTxDesc                0                       # total number of TxDesc written to ISR
system.realview.ethernet.postedRxOrn                0                       # number of RxOrn posted to CPU
system.realview.ethernet.coalescedRxOrn             0                       # average number of RxOrn's coalesced into each post
system.realview.ethernet.totalRxOrn                 0                       # total number of RxOrn written to ISR
system.realview.ethernet.coalescedTotal             0                       # average number of interrupts coalesced into each post
system.realview.ethernet.postedInterrupts           13                       # number of posts to CPU
system.realview.ethernet.droppedPackets             0                       # number of packets dropped
system.cpu.kern.inst.arm                            0                       # number of arm instructions executed
system.cpu.kern.inst.quiesce                    16179                       # number of quiesce instructions executed

---------- End Simulation Statistics   ----------
