Redirecting stdout to build/ALPHA/tests/opt/long/fs/10.linux-boot/alpha/linux/tsunami-o3-dual/simout
Redirecting stderr to build/ALPHA/tests/opt/long/fs/10.linux-boot/alpha/linux/tsunami-o3-dual/simerr
gem5 Simulator System.  http://gem5.org
gem5 is copyrighted software; use the --copyright option for details.

gem5 compiled Feb  3 2012 13:46:22
gem5 started Feb  3 2012 13:46:34
gem5 executing on ribera.cs.wisc.edu
command line: build/ALPHA/gem5.opt -d build/ALPHA/tests/opt/long/fs/10.linux-boot/alpha/linux/tsunami-o3-dual -re tests/run.py build/ALPHA/tests/opt/long/fs/10.linux-boot/alpha/linux/tsunami-o3-dual
Global frequency set at 1000000000000 ticks per second
      0: system.tsunami.io.rtc: Real-time clock set to Thu Jan  1 00:00:00 2009
info: kernel located at: /scratch/nilay/GEM5/system/binaries/vmlinux
info: Entering event queue @ 0.  Starting simulation...
info: Launching CPU 1 @ 106949500
Exiting @ tick 1897464893500 because m5_exit instruction encountered
