Redirecting stdout to build/ALPHA/tests/opt/long/fs/10.linux-boot/alpha/linux/tsunami-o3-dual/simout
Redirecting stderr to build/ALPHA/tests/opt/long/fs/10.linux-boot/alpha/linux/tsunami-o3-dual/simerr
gem5 Simulator System.  http://gem5.org
gem5 is copyrighted software; use the --copyright option for details.

gem5 compiled Oct 11 2016 00:00:58
gem5 started Oct 13 2016 20:19:46
gem5 executing on e108600-lin, pid 28085
command line: /work/curdun01/gem5-external.hg/build/ALPHA/gem5.opt -d build/ALPHA/tests/opt/long/fs/10.linux-boot/alpha/linux/tsunami-o3-dual -re /work/curdun01/gem5-external.hg/tests/testing/../run.py long/fs/10.linux-boot/alpha/linux/tsunami-o3-dual

Global frequency set at 1000000000000 ticks per second
info: kernel located at: /arm/projectscratch/randd/systems/dist/binaries/vmlinux
      0: system.tsunami.io.rtc: Real-time clock set to Thu Jan  1 00:00:00 2009
info: Entering event queue @ 0.  Starting simulation...
info: Launching CPU 1 @ 133768500
Exiting @ tick 1907549438500 because m5_exit instruction encountered
