
---------- Begin Simulation Statistics ----------
sim_seconds                                  1.905651                       # Number of seconds simulated
sim_ticks                                1905651402000                       # Number of ticks simulated
final_tick                               1905651402000                       # Number of ticks from beginning of simulation (restored from checkpoints and never reset)
sim_freq                                 1000000000000                       # Frequency of simulated ticks
host_inst_rate                                 124387                       # Simulator instruction rate (inst/s)
host_op_rate                                   124387                       # Simulator op (including micro ops) rate (op/s)
host_tick_rate                             4179760275                       # Simulator tick rate (ticks/s)
host_mem_usage                                 352908                       # Number of bytes of host memory used
host_seconds                                   455.92                       # Real time elapsed on the host
sim_insts                                    56710998                       # Number of instructions simulated
sim_ops                                      56710998                       # Number of ops (including micro ops) simulated
system.voltage_domain.voltage                       1                       # Voltage in Volts
system.clk_domain.clock                          1000                       # Clock period in ticks
system.physmem.bytes_read::cpu0.inst           897600                       # Number of bytes read from this memory
system.physmem.bytes_read::cpu0.data         24800576                       # Number of bytes read from this memory
system.physmem.bytes_read::tsunami.ide        2649600                       # Number of bytes read from this memory
system.physmem.bytes_read::cpu1.inst            78720                       # Number of bytes read from this memory
system.physmem.bytes_read::cpu1.data           431296                       # Number of bytes read from this memory
system.physmem.bytes_read::total             28857792                       # Number of bytes read from this memory
system.physmem.bytes_inst_read::cpu0.inst       897600                       # Number of instructions bytes read from this memory
system.physmem.bytes_inst_read::cpu1.inst        78720                       # Number of instructions bytes read from this memory
system.physmem.bytes_inst_read::total          976320                       # Number of instructions bytes read from this memory
system.physmem.bytes_written::writebacks      7816896                       # Number of bytes written to this memory
system.physmem.bytes_written::total           7816896                       # Number of bytes written to this memory
system.physmem.num_reads::cpu0.inst             14025                       # Number of read requests responded to by this memory
system.physmem.num_reads::cpu0.data            387509                       # Number of read requests responded to by this memory
system.physmem.num_reads::tsunami.ide           41400                       # Number of read requests responded to by this memory
system.physmem.num_reads::cpu1.inst              1230                       # Number of read requests responded to by this memory
system.physmem.num_reads::cpu1.data              6739                       # Number of read requests responded to by this memory
system.physmem.num_reads::total                450903                       # Number of read requests responded to by this memory
system.physmem.num_writes::writebacks          122139                       # Number of write requests responded to by this memory
system.physmem.num_writes::total               122139                       # Number of write requests responded to by this memory
system.physmem.bw_read::cpu0.inst              471020                       # Total read bandwidth from this memory (bytes/s)
system.physmem.bw_read::cpu0.data            13014225                       # Total read bandwidth from this memory (bytes/s)
system.physmem.bw_read::tsunami.ide           1390391                       # Total read bandwidth from this memory (bytes/s)
system.physmem.bw_read::cpu1.inst               41309                       # Total read bandwidth from this memory (bytes/s)
system.physmem.bw_read::cpu1.data              226325                       # Total read bandwidth from this memory (bytes/s)
system.physmem.bw_read::total                15143269                       # Total read bandwidth from this memory (bytes/s)
system.physmem.bw_inst_read::cpu0.inst         471020                       # Instruction read bandwidth from this memory (bytes/s)
system.physmem.bw_inst_read::cpu1.inst          41309                       # Instruction read bandwidth from this memory (bytes/s)
system.physmem.bw_inst_read::total             512329                       # Instruction read bandwidth from this memory (bytes/s)
system.physmem.bw_write::writebacks           4101955                       # Write bandwidth from this memory (bytes/s)
system.physmem.bw_write::total                4101955                       # Write bandwidth from this memory (bytes/s)
system.physmem.bw_total::writebacks           4101955                       # Total bandwidth to/from this memory (bytes/s)
system.physmem.bw_total::cpu0.inst             471020                       # Total bandwidth to/from this memory (bytes/s)
system.physmem.bw_total::cpu0.data           13014225                       # Total bandwidth to/from this memory (bytes/s)
system.physmem.bw_total::tsunami.ide          1390391                       # Total bandwidth to/from this memory (bytes/s)
system.physmem.bw_total::cpu1.inst              41309                       # Total bandwidth to/from this memory (bytes/s)
system.physmem.bw_total::cpu1.data             226325                       # Total bandwidth to/from this memory (bytes/s)
system.physmem.bw_total::total               19245224                       # Total bandwidth to/from this memory (bytes/s)
system.physmem.readReqs                        450903                       # Number of read requests accepted
system.physmem.writeReqs                       122139                       # Number of write requests accepted
system.physmem.readBursts                      450903                       # Number of DRAM read bursts, including those serviced by the write queue
system.physmem.writeBursts                     122139                       # Number of DRAM write bursts, including those merged in the write queue
system.physmem.bytesReadDRAM                 28848704                       # Total number of bytes read from DRAM
system.physmem.bytesReadWrQ                      9088                       # Total number of bytes read from write queue
system.physmem.bytesWritten                   7815360                       # Total number of bytes written to DRAM
system.physmem.bytesReadSys                  28857792                       # Total read bytes from the system interface side
system.physmem.bytesWrittenSys                7816896                       # Total written bytes from the system interface side
system.physmem.servicedByWrQ                      142                       # Number of DRAM read bursts serviced by the write queue
system.physmem.mergedWrBursts                       0                       # Number of DRAM write bursts merged with an existing one
system.physmem.neitherReadNorWriteReqs           4858                       # Number of requests that are neither read nor write
system.physmem.perBankRdBursts::0               28020                       # Per bank write bursts
system.physmem.perBankRdBursts::1               28240                       # Per bank write bursts
system.physmem.perBankRdBursts::2               28746                       # Per bank write bursts
system.physmem.perBankRdBursts::3               28309                       # Per bank write bursts
system.physmem.perBankRdBursts::4               27973                       # Per bank write bursts
system.physmem.perBankRdBursts::5               28180                       # Per bank write bursts
system.physmem.perBankRdBursts::6               28116                       # Per bank write bursts
system.physmem.perBankRdBursts::7               27456                       # Per bank write bursts
system.physmem.perBankRdBursts::8               27700                       # Per bank write bursts
system.physmem.perBankRdBursts::9               28070                       # Per bank write bursts
system.physmem.perBankRdBursts::10              27744                       # Per bank write bursts
system.physmem.perBankRdBursts::11              28151                       # Per bank write bursts
system.physmem.perBankRdBursts::12              28476                       # Per bank write bursts
system.physmem.perBankRdBursts::13              28764                       # Per bank write bursts
system.physmem.perBankRdBursts::14              28477                       # Per bank write bursts
system.physmem.perBankRdBursts::15              28339                       # Per bank write bursts
system.physmem.perBankWrBursts::0                7807                       # Per bank write bursts
system.physmem.perBankWrBursts::1                7750                       # Per bank write bursts
system.physmem.perBankWrBursts::2                8222                       # Per bank write bursts
system.physmem.perBankWrBursts::3                7743                       # Per bank write bursts
system.physmem.perBankWrBursts::4                7390                       # Per bank write bursts
system.physmem.perBankWrBursts::5                7636                       # Per bank write bursts
system.physmem.perBankWrBursts::6                7609                       # Per bank write bursts
system.physmem.perBankWrBursts::7                6913                       # Per bank write bursts
system.physmem.perBankWrBursts::8                6944                       # Per bank write bursts
system.physmem.perBankWrBursts::9                7275                       # Per bank write bursts
system.physmem.perBankWrBursts::10               7157                       # Per bank write bursts
system.physmem.perBankWrBursts::11               7547                       # Per bank write bursts
system.physmem.perBankWrBursts::12               7916                       # Per bank write bursts
system.physmem.perBankWrBursts::13               8234                       # Per bank write bursts
system.physmem.perBankWrBursts::14               8082                       # Per bank write bursts
system.physmem.perBankWrBursts::15               7890                       # Per bank write bursts
system.physmem.numRdRetry                           0                       # Number of times read queue was full causing retry
system.physmem.numWrRetry                           8                       # Number of times write queue was full causing retry
system.physmem.totGap                    1905651381000                       # Total gap between requests
system.physmem.readPktSize::0                       0                       # Read request sizes (log2)
system.physmem.readPktSize::1                       0                       # Read request sizes (log2)
system.physmem.readPktSize::2                       0                       # Read request sizes (log2)
system.physmem.readPktSize::3                       0                       # Read request sizes (log2)
system.physmem.readPktSize::4                       0                       # Read request sizes (log2)
system.physmem.readPktSize::5                       0                       # Read request sizes (log2)
system.physmem.readPktSize::6                  450903                       # Read request sizes (log2)
system.physmem.writePktSize::0                      0                       # Write request sizes (log2)
system.physmem.writePktSize::1                      0                       # Write request sizes (log2)
system.physmem.writePktSize::2                      0                       # Write request sizes (log2)
system.physmem.writePktSize::3                      0                       # Write request sizes (log2)
system.physmem.writePktSize::4                      0                       # Write request sizes (log2)
system.physmem.writePktSize::5                      0                       # Write request sizes (log2)
system.physmem.writePktSize::6                 122139                       # Write request sizes (log2)
system.physmem.rdQLenPdf::0                    319686                       # What read queue length does an incoming req see
system.physmem.rdQLenPdf::1                     41704                       # What read queue length does an incoming req see
system.physmem.rdQLenPdf::2                     44614                       # What read queue length does an incoming req see
system.physmem.rdQLenPdf::3                      8998                       # What read queue length does an incoming req see
system.physmem.rdQLenPdf::4                      2006                       # What read queue length does an incoming req see
system.physmem.rdQLenPdf::5                      4380                       # What read queue length does an incoming req see
system.physmem.rdQLenPdf::6                      3959                       # What read queue length does an incoming req see
system.physmem.rdQLenPdf::7                      3971                       # What read queue length does an incoming req see
system.physmem.rdQLenPdf::8                      2562                       # What read queue length does an incoming req see
system.physmem.rdQLenPdf::9                      2247                       # What read queue length does an incoming req see
system.physmem.rdQLenPdf::10                     2201                       # What read queue length does an incoming req see
system.physmem.rdQLenPdf::11                     2095                       # What read queue length does an incoming req see
system.physmem.rdQLenPdf::12                     1646                       # What read queue length does an incoming req see
system.physmem.rdQLenPdf::13                     1635                       # What read queue length does an incoming req see
system.physmem.rdQLenPdf::14                     1944                       # What read queue length does an incoming req see
system.physmem.rdQLenPdf::15                     1926                       # What read queue length does an incoming req see
system.physmem.rdQLenPdf::16                     2121                       # What read queue length does an incoming req see
system.physmem.rdQLenPdf::17                     1207                       # What read queue length does an incoming req see
system.physmem.rdQLenPdf::18                      949                       # What read queue length does an incoming req see
system.physmem.rdQLenPdf::19                      885                       # What read queue length does an incoming req see
system.physmem.rdQLenPdf::20                       13                       # What read queue length does an incoming req see
system.physmem.rdQLenPdf::21                       11                       # What read queue length does an incoming req see
system.physmem.rdQLenPdf::22                        1                       # What read queue length does an incoming req see
system.physmem.rdQLenPdf::23                        0                       # What read queue length does an incoming req see
system.physmem.rdQLenPdf::24                        0                       # What read queue length does an incoming req see
system.physmem.rdQLenPdf::25                        0                       # What read queue length does an incoming req see
system.physmem.rdQLenPdf::26                        0                       # What read queue length does an incoming req see
system.physmem.rdQLenPdf::27                        0                       # What read queue length does an incoming req see
system.physmem.rdQLenPdf::28                        0                       # What read queue length does an incoming req see
system.physmem.rdQLenPdf::29                        0                       # What read queue length does an incoming req see
system.physmem.rdQLenPdf::30                        0                       # What read queue length does an incoming req see
system.physmem.rdQLenPdf::31                        0                       # What read queue length does an incoming req see
system.physmem.wrQLenPdf::0                         1                       # What write queue length does an incoming req see
system.physmem.wrQLenPdf::1                         1                       # What write queue length does an incoming req see
system.physmem.wrQLenPdf::2                         1                       # What write queue length does an incoming req see
system.physmem.wrQLenPdf::3                         1                       # What write queue length does an incoming req see
system.physmem.wrQLenPdf::4                         1                       # What write queue length does an incoming req see
system.physmem.wrQLenPdf::5                         1                       # What write queue length does an incoming req see
system.physmem.wrQLenPdf::6                         1                       # What write queue length does an incoming req see
system.physmem.wrQLenPdf::7                         1                       # What write queue length does an incoming req see
system.physmem.wrQLenPdf::8                         1                       # What write queue length does an incoming req see
system.physmem.wrQLenPdf::9                         1                       # What write queue length does an incoming req see
system.physmem.wrQLenPdf::10                        1                       # What write queue length does an incoming req see
system.physmem.wrQLenPdf::11                        1                       # What write queue length does an incoming req see
system.physmem.wrQLenPdf::12                        1                       # What write queue length does an incoming req see
system.physmem.wrQLenPdf::13                        1                       # What write queue length does an incoming req see
system.physmem.wrQLenPdf::14                        1                       # What write queue length does an incoming req see
system.physmem.wrQLenPdf::15                     1166                       # What write queue length does an incoming req see
system.physmem.wrQLenPdf::16                     1206                       # What write queue length does an incoming req see
system.physmem.wrQLenPdf::17                     2413                       # What write queue length does an incoming req see
system.physmem.wrQLenPdf::18                     3733                       # What write queue length does an incoming req see
system.physmem.wrQLenPdf::19                     4487                       # What write queue length does an incoming req see
system.physmem.wrQLenPdf::20                     5021                       # What write queue length does an incoming req see
system.physmem.wrQLenPdf::21                     5063                       # What write queue length does an incoming req see
system.physmem.wrQLenPdf::22                     5168                       # What write queue length does an incoming req see
system.physmem.wrQLenPdf::23                     5369                       # What write queue length does an incoming req see
system.physmem.wrQLenPdf::24                     5553                       # What write queue length does an incoming req see
system.physmem.wrQLenPdf::25                     5837                       # What write queue length does an incoming req see
system.physmem.wrQLenPdf::26                     6174                       # What write queue length does an incoming req see
system.physmem.wrQLenPdf::27                     6527                       # What write queue length does an incoming req see
system.physmem.wrQLenPdf::28                     7038                       # What write queue length does an incoming req see
system.physmem.wrQLenPdf::29                     6311                       # What write queue length does an incoming req see
system.physmem.wrQLenPdf::30                     6522                       # What write queue length does an incoming req see
system.physmem.wrQLenPdf::31                     6544                       # What write queue length does an incoming req see
system.physmem.wrQLenPdf::32                     6265                       # What write queue length does an incoming req see
system.physmem.wrQLenPdf::33                      950                       # What write queue length does an incoming req see
system.physmem.wrQLenPdf::34                      934                       # What write queue length does an incoming req see
system.physmem.wrQLenPdf::35                      961                       # What write queue length does an incoming req see
system.physmem.wrQLenPdf::36                      906                       # What write queue length does an incoming req see
system.physmem.wrQLenPdf::37                     1002                       # What write queue length does an incoming req see
system.physmem.wrQLenPdf::38                      986                       # What write queue length does an incoming req see
system.physmem.wrQLenPdf::39                     1094                       # What write queue length does an incoming req see
system.physmem.wrQLenPdf::40                     1000                       # What write queue length does an incoming req see
system.physmem.wrQLenPdf::41                     1212                       # What write queue length does an incoming req see
system.physmem.wrQLenPdf::42                     1261                       # What write queue length does an incoming req see
system.physmem.wrQLenPdf::43                     1239                       # What write queue length does an incoming req see
system.physmem.wrQLenPdf::44                     1319                       # What write queue length does an incoming req see
system.physmem.wrQLenPdf::45                     1407                       # What write queue length does an incoming req see
system.physmem.wrQLenPdf::46                     1623                       # What write queue length does an incoming req see
system.physmem.wrQLenPdf::47                     1831                       # What write queue length does an incoming req see
system.physmem.wrQLenPdf::48                     2000                       # What write queue length does an incoming req see
system.physmem.wrQLenPdf::49                     1833                       # What write queue length does an incoming req see
system.physmem.wrQLenPdf::50                     1809                       # What write queue length does an incoming req see
system.physmem.wrQLenPdf::51                     1672                       # What write queue length does an incoming req see
system.physmem.wrQLenPdf::52                     1691                       # What write queue length does an incoming req see
system.physmem.wrQLenPdf::53                     1834                       # What write queue length does an incoming req see
system.physmem.wrQLenPdf::54                     1598                       # What write queue length does an incoming req see
system.physmem.wrQLenPdf::55                      810                       # What write queue length does an incoming req see
system.physmem.wrQLenPdf::56                      331                       # What write queue length does an incoming req see
system.physmem.wrQLenPdf::57                      177                       # What write queue length does an incoming req see
system.physmem.wrQLenPdf::58                      118                       # What write queue length does an incoming req see
system.physmem.wrQLenPdf::59                       50                       # What write queue length does an incoming req see
system.physmem.wrQLenPdf::60                       31                       # What write queue length does an incoming req see
system.physmem.wrQLenPdf::61                       20                       # What write queue length does an incoming req see
system.physmem.wrQLenPdf::62                       17                       # What write queue length does an incoming req see
system.physmem.wrQLenPdf::63                       11                       # What write queue length does an incoming req see
system.physmem.bytesPerActivate::samples        66611                       # Bytes accessed per row activation
system.physmem.bytesPerActivate::mean      550.416718                       # Bytes accessed per row activation
system.physmem.bytesPerActivate::gmean     337.147598                       # Bytes accessed per row activation
system.physmem.bytesPerActivate::stdev     420.487836                       # Bytes accessed per row activation
system.physmem.bytesPerActivate::0-127          14710     22.08%     22.08% # Bytes accessed per row activation
system.physmem.bytesPerActivate::128-255        11156     16.75%     38.83% # Bytes accessed per row activation
system.physmem.bytesPerActivate::256-383         5022      7.54%     46.37% # Bytes accessed per row activation
system.physmem.bytesPerActivate::384-511         2851      4.28%     50.65% # Bytes accessed per row activation
system.physmem.bytesPerActivate::512-639         2435      3.66%     54.31% # Bytes accessed per row activation
system.physmem.bytesPerActivate::640-767         1624      2.44%     56.74% # Bytes accessed per row activation
system.physmem.bytesPerActivate::768-895         1521      2.28%     59.03% # Bytes accessed per row activation
system.physmem.bytesPerActivate::896-1023         1728      2.59%     61.62% # Bytes accessed per row activation
system.physmem.bytesPerActivate::1024-1151        25564     38.38%    100.00% # Bytes accessed per row activation
system.physmem.bytesPerActivate::total          66611                       # Bytes accessed per row activation
system.physmem.rdPerTurnAround::samples          7169                       # Reads before turning the bus around for writes
system.physmem.rdPerTurnAround::mean        62.875994                       # Reads before turning the bus around for writes
system.physmem.rdPerTurnAround::stdev     2479.971838                       # Reads before turning the bus around for writes
system.physmem.rdPerTurnAround::0-8191           7166     99.96%     99.96% # Reads before turning the bus around for writes
system.physmem.rdPerTurnAround::40960-49151            1      0.01%     99.97% # Reads before turning the bus around for writes
system.physmem.rdPerTurnAround::57344-65535            1      0.01%     99.99% # Reads before turning the bus around for writes
system.physmem.rdPerTurnAround::196608-204799            1      0.01%    100.00% # Reads before turning the bus around for writes
system.physmem.rdPerTurnAround::total            7169                       # Reads before turning the bus around for writes
system.physmem.wrPerTurnAround::samples          7169                       # Writes before turning the bus around for reads
system.physmem.wrPerTurnAround::mean        17.033756                       # Writes before turning the bus around for reads
system.physmem.wrPerTurnAround::gmean       16.809188                       # Writes before turning the bus around for reads
system.physmem.wrPerTurnAround::stdev        3.694603                       # Writes before turning the bus around for reads
system.physmem.wrPerTurnAround::16               5699     79.50%     79.50% # Writes before turning the bus around for reads
system.physmem.wrPerTurnAround::17                 43      0.60%     80.09% # Writes before turning the bus around for reads
system.physmem.wrPerTurnAround::18                713      9.95%     90.04% # Writes before turning the bus around for reads
system.physmem.wrPerTurnAround::19                256      3.57%     93.61% # Writes before turning the bus around for reads
system.physmem.wrPerTurnAround::20                102      1.42%     95.03% # Writes before turning the bus around for reads
system.physmem.wrPerTurnAround::21                 22      0.31%     95.34% # Writes before turning the bus around for reads
system.physmem.wrPerTurnAround::22                 28      0.39%     95.73% # Writes before turning the bus around for reads
system.physmem.wrPerTurnAround::23                 86      1.20%     96.93% # Writes before turning the bus around for reads
system.physmem.wrPerTurnAround::24                 18      0.25%     97.18% # Writes before turning the bus around for reads
system.physmem.wrPerTurnAround::25                 42      0.59%     97.77% # Writes before turning the bus around for reads
system.physmem.wrPerTurnAround::26                 15      0.21%     97.98% # Writes before turning the bus around for reads
system.physmem.wrPerTurnAround::27                 21      0.29%     98.27% # Writes before turning the bus around for reads
system.physmem.wrPerTurnAround::28                 11      0.15%     98.42% # Writes before turning the bus around for reads
system.physmem.wrPerTurnAround::29                 10      0.14%     98.56% # Writes before turning the bus around for reads
system.physmem.wrPerTurnAround::30                  3      0.04%     98.61% # Writes before turning the bus around for reads
system.physmem.wrPerTurnAround::31                 26      0.36%     98.97% # Writes before turning the bus around for reads
system.physmem.wrPerTurnAround::32                  2      0.03%     99.00% # Writes before turning the bus around for reads
system.physmem.wrPerTurnAround::35                  2      0.03%     99.02% # Writes before turning the bus around for reads
system.physmem.wrPerTurnAround::36                  2      0.03%     99.05% # Writes before turning the bus around for reads
system.physmem.wrPerTurnAround::37                  1      0.01%     99.07% # Writes before turning the bus around for reads
system.physmem.wrPerTurnAround::38                  1      0.01%     99.08% # Writes before turning the bus around for reads
system.physmem.wrPerTurnAround::39                  4      0.06%     99.14% # Writes before turning the bus around for reads
system.physmem.wrPerTurnAround::40                  3      0.04%     99.18% # Writes before turning the bus around for reads
system.physmem.wrPerTurnAround::41                  6      0.08%     99.26% # Writes before turning the bus around for reads
system.physmem.wrPerTurnAround::42                  2      0.03%     99.29% # Writes before turning the bus around for reads
system.physmem.wrPerTurnAround::43                  1      0.01%     99.30% # Writes before turning the bus around for reads
system.physmem.wrPerTurnAround::44                  3      0.04%     99.34% # Writes before turning the bus around for reads
system.physmem.wrPerTurnAround::45                  5      0.07%     99.41% # Writes before turning the bus around for reads
system.physmem.wrPerTurnAround::47                 11      0.15%     99.57% # Writes before turning the bus around for reads
system.physmem.wrPerTurnAround::48                  5      0.07%     99.64% # Writes before turning the bus around for reads
system.physmem.wrPerTurnAround::49                  4      0.06%     99.69% # Writes before turning the bus around for reads
system.physmem.wrPerTurnAround::50                  1      0.01%     99.71% # Writes before turning the bus around for reads
system.physmem.wrPerTurnAround::51                  1      0.01%     99.72% # Writes before turning the bus around for reads
system.physmem.wrPerTurnAround::55                  1      0.01%     99.73% # Writes before turning the bus around for reads
system.physmem.wrPerTurnAround::56                  7      0.10%     99.83% # Writes before turning the bus around for reads
system.physmem.wrPerTurnAround::57                 11      0.15%     99.99% # Writes before turning the bus around for reads
system.physmem.wrPerTurnAround::58                  1      0.01%    100.00% # Writes before turning the bus around for reads
system.physmem.wrPerTurnAround::total            7169                       # Writes before turning the bus around for reads
system.physmem.totQLat                     8930594750                       # Total ticks spent queuing
system.physmem.totMemAccLat               17382363500                       # Total ticks spent from burst creation until serviced by the DRAM
system.physmem.totBusLat                   2253805000                       # Total ticks spent in databus transfers
system.physmem.avgQLat                       19812.26                       # Average queueing delay per DRAM burst
system.physmem.avgBusLat                      5000.00                       # Average bus latency per DRAM burst
system.physmem.avgMemAccLat                  38562.26                       # Average memory access latency per DRAM burst
system.physmem.avgRdBW                          15.14                       # Average DRAM read bandwidth in MiByte/s
system.physmem.avgWrBW                           4.10                       # Average achieved write bandwidth in MiByte/s
system.physmem.avgRdBWSys                       15.14                       # Average system read bandwidth in MiByte/s
system.physmem.avgWrBWSys                        4.10                       # Average system write bandwidth in MiByte/s
system.physmem.peakBW                        12800.00                       # Theoretical peak bandwidth in MiByte/s
system.physmem.busUtil                           0.15                       # Data bus utilization in percentage
system.physmem.busUtilRead                       0.12                       # Data bus utilization in percentage for reads
system.physmem.busUtilWrite                      0.03                       # Data bus utilization in percentage for writes
system.physmem.avgRdQLen                         1.86                       # Average read queue length when enqueuing
system.physmem.avgWrQLen                        25.90                       # Average write queue length when enqueuing
system.physmem.readRowHits                     407659                       # Number of row buffer hits during reads
system.physmem.writeRowHits                     98604                       # Number of row buffer hits during writes
system.physmem.readRowHitRate                   90.44                       # Row buffer hit rate for reads
system.physmem.writeRowHitRate                  80.73                       # Row buffer hit rate for writes
system.physmem.avgGap                      3325500.37                       # Average gap between requests
system.physmem.pageHitRate                      88.37                       # Row buffer hit rate, read and write combined
system.physmem.memoryStateTime::IDLE     1804524317000                       # Time in different power states
system.physmem.memoryStateTime::REF       63633700000                       # Time in different power states
system.physmem.memoryStateTime::PRE_PDN             0                       # Time in different power states
system.physmem.memoryStateTime::ACT       37488657000                       # Time in different power states
system.physmem.memoryStateTime::ACT_PDN             0                       # Time in different power states
system.membus.throughput                     19303809                       # Throughput (bytes/s)
system.membus.trans_dist::ReadReq              296468                       # Transaction distribution
system.membus.trans_dist::ReadResp             296393                       # Transaction distribution
system.membus.trans_dist::WriteReq              13039                       # Transaction distribution
system.membus.trans_dist::WriteResp             13039                       # Transaction distribution
system.membus.trans_dist::Writeback            122139                       # Transaction distribution
system.membus.trans_dist::UpgradeReq             9699                       # Transaction distribution
system.membus.trans_dist::SCUpgradeReq           5540                       # Transaction distribution
system.membus.trans_dist::UpgradeResp            4861                       # Transaction distribution
system.membus.trans_dist::ReadExReq            162690                       # Transaction distribution
system.membus.trans_dist::ReadExResp           162297                       # Transaction distribution
system.membus.trans_dist::BadAddressError           75                       # Transaction distribution
system.membus.pkt_count_system.l2c.mem_side::system.bridge.slave        40466                       # Packet count per connected master and slave (bytes)
system.membus.pkt_count_system.l2c.mem_side::system.physmem.port       920381                       # Packet count per connected master and slave (bytes)
system.membus.pkt_count_system.l2c.mem_side::system.membus.badaddr_responder.pio          150                       # Packet count per connected master and slave (bytes)
system.membus.pkt_count_system.l2c.mem_side::total       960997                       # Packet count per connected master and slave (bytes)
system.membus.pkt_count_system.iocache.mem_side::system.physmem.port       124647                       # Packet count per connected master and slave (bytes)
system.membus.pkt_count_system.iocache.mem_side::total       124647                       # Packet count per connected master and slave (bytes)
system.membus.pkt_count::total                1085644                       # Packet count per connected master and slave (bytes)
system.membus.tot_pkt_size_system.l2c.mem_side::system.bridge.slave        73690                       # Cumulative packet size per connected master and slave (bytes)
system.membus.tot_pkt_size_system.l2c.mem_side::system.physmem.port     31367808                       # Cumulative packet size per connected master and slave (bytes)
system.membus.tot_pkt_size_system.l2c.mem_side::total     31441498                       # Cumulative packet size per connected master and slave (bytes)
system.membus.tot_pkt_size_system.iocache.mem_side::system.physmem.port      5306880                       # Cumulative packet size per connected master and slave (bytes)
system.membus.tot_pkt_size_system.iocache.mem_side::total      5306880                       # Cumulative packet size per connected master and slave (bytes)
system.membus.tot_pkt_size::total            36748378                       # Cumulative packet size per connected master and slave (bytes)
system.membus.data_through_bus               36748378                       # Total data (bytes)
system.membus.snoop_data_through_bus            37952                       # Total snoop data (bytes)
system.membus.reqLayer0.occupancy            37884500                       # Layer occupancy (ticks)
system.membus.reqLayer0.utilization               0.0                       # Layer utilization (%)
system.membus.reqLayer1.occupancy          1609423248                       # Layer occupancy (ticks)
system.membus.reqLayer1.utilization               0.1                       # Layer utilization (%)
system.membus.reqLayer2.occupancy               94500                       # Layer occupancy (ticks)
system.membus.reqLayer2.utilization               0.0                       # Layer utilization (%)
system.membus.respLayer1.occupancy         3824980631                       # Layer occupancy (ticks)
system.membus.respLayer1.utilization              0.2                       # Layer utilization (%)
system.membus.respLayer2.occupancy          376652994                       # Layer occupancy (ticks)
system.membus.respLayer2.utilization              0.0                       # Layer utilization (%)
system.cpu_clk_domain.clock                       500                       # Clock period in ticks
system.l2c.tags.replacements                   343977                       # number of replacements
system.l2c.tags.tagsinuse                65252.773158                       # Cycle average of tags in use
system.l2c.tags.total_refs                    2582565                       # Total number of references to valid blocks.
system.l2c.tags.sampled_refs                   408968                       # Sample count of references to valid blocks.
system.l2c.tags.avg_refs                     6.314834                       # Average number of references to valid blocks.
system.l2c.tags.warmup_cycle               7103141750                       # Cycle when the warmup percentage was hit.
system.l2c.tags.occ_blocks::writebacks   53523.190376                       # Average occupied blocks per requestor
system.l2c.tags.occ_blocks::cpu0.inst     5304.878115                       # Average occupied blocks per requestor
system.l2c.tags.occ_blocks::cpu0.data     6147.677864                       # Average occupied blocks per requestor
system.l2c.tags.occ_blocks::cpu1.inst      207.477812                       # Average occupied blocks per requestor
system.l2c.tags.occ_blocks::cpu1.data       69.548991                       # Average occupied blocks per requestor
system.l2c.tags.occ_percent::writebacks      0.816699                       # Average percentage of cache occupancy
system.l2c.tags.occ_percent::cpu0.inst       0.080946                       # Average percentage of cache occupancy
system.l2c.tags.occ_percent::cpu0.data       0.093806                       # Average percentage of cache occupancy
system.l2c.tags.occ_percent::cpu1.inst       0.003166                       # Average percentage of cache occupancy
system.l2c.tags.occ_percent::cpu1.data       0.001061                       # Average percentage of cache occupancy
system.l2c.tags.occ_percent::total           0.995678                       # Average percentage of cache occupancy
system.l2c.tags.occ_task_id_blocks::1024        64991                       # Occupied blocks per task id
system.l2c.tags.age_task_id_blocks_1024::0          227                       # Occupied blocks per task id
system.l2c.tags.age_task_id_blocks_1024::1         3387                       # Occupied blocks per task id
system.l2c.tags.age_task_id_blocks_1024::2         4556                       # Occupied blocks per task id
system.l2c.tags.age_task_id_blocks_1024::3         4338                       # Occupied blocks per task id
system.l2c.tags.age_task_id_blocks_1024::4        52483                       # Occupied blocks per task id
system.l2c.tags.occ_task_id_percent::1024     0.991684                       # Percentage of cache occupancy per task id
system.l2c.tags.tag_accesses                 27108862                       # Number of tag accesses
system.l2c.tags.data_accesses                27108862                       # Number of data accesses
system.l2c.ReadReq_hits::cpu0.inst             867616                       # number of ReadReq hits
system.l2c.ReadReq_hits::cpu0.data             736617                       # number of ReadReq hits
system.l2c.ReadReq_hits::cpu1.inst             210128                       # number of ReadReq hits
system.l2c.ReadReq_hits::cpu1.data              67910                       # number of ReadReq hits
system.l2c.ReadReq_hits::total                1882271                       # number of ReadReq hits
system.l2c.Writeback_hits::writebacks          822208                       # number of Writeback hits
system.l2c.Writeback_hits::total               822208                       # number of Writeback hits
system.l2c.UpgradeReq_hits::cpu0.data             169                       # number of UpgradeReq hits
system.l2c.UpgradeReq_hits::cpu1.data             261                       # number of UpgradeReq hits
system.l2c.UpgradeReq_hits::total                 430                       # number of UpgradeReq hits
system.l2c.SCUpgradeReq_hits::cpu0.data            49                       # number of SCUpgradeReq hits
system.l2c.SCUpgradeReq_hits::cpu1.data            24                       # number of SCUpgradeReq hits
system.l2c.SCUpgradeReq_hits::total                73                       # number of SCUpgradeReq hits
system.l2c.ReadExReq_hits::cpu0.data           154436                       # number of ReadExReq hits
system.l2c.ReadExReq_hits::cpu1.data            25581                       # number of ReadExReq hits
system.l2c.ReadExReq_hits::total               180017                       # number of ReadExReq hits
system.l2c.demand_hits::cpu0.inst              867616                       # number of demand (read+write) hits
system.l2c.demand_hits::cpu0.data              891053                       # number of demand (read+write) hits
system.l2c.demand_hits::cpu1.inst              210128                       # number of demand (read+write) hits
system.l2c.demand_hits::cpu1.data               93491                       # number of demand (read+write) hits
system.l2c.demand_hits::total                 2062288                       # number of demand (read+write) hits
system.l2c.overall_hits::cpu0.inst             867616                       # number of overall hits
system.l2c.overall_hits::cpu0.data             891053                       # number of overall hits
system.l2c.overall_hits::cpu1.inst             210128                       # number of overall hits
system.l2c.overall_hits::cpu1.data              93491                       # number of overall hits
system.l2c.overall_hits::total                2062288                       # number of overall hits
system.l2c.ReadReq_misses::cpu0.inst            14035                       # number of ReadReq misses
system.l2c.ReadReq_misses::cpu0.data           273392                       # number of ReadReq misses
system.l2c.ReadReq_misses::cpu1.inst             1238                       # number of ReadReq misses
system.l2c.ReadReq_misses::cpu1.data              452                       # number of ReadReq misses
system.l2c.ReadReq_misses::total               289117                       # number of ReadReq misses
system.l2c.UpgradeReq_misses::cpu0.data          2673                       # number of UpgradeReq misses
system.l2c.UpgradeReq_misses::cpu1.data          1056                       # number of UpgradeReq misses
system.l2c.UpgradeReq_misses::total              3729                       # number of UpgradeReq misses
system.l2c.SCUpgradeReq_misses::cpu0.data          406                       # number of SCUpgradeReq misses
system.l2c.SCUpgradeReq_misses::cpu1.data          434                       # number of SCUpgradeReq misses
system.l2c.SCUpgradeReq_misses::total             840                       # number of SCUpgradeReq misses
system.l2c.ReadExReq_misses::cpu0.data         114695                       # number of ReadExReq misses
system.l2c.ReadExReq_misses::cpu1.data           6342                       # number of ReadExReq misses
system.l2c.ReadExReq_misses::total             121037                       # number of ReadExReq misses
system.l2c.demand_misses::cpu0.inst             14035                       # number of demand (read+write) misses
system.l2c.demand_misses::cpu0.data            388087                       # number of demand (read+write) misses
system.l2c.demand_misses::cpu1.inst              1238                       # number of demand (read+write) misses
system.l2c.demand_misses::cpu1.data              6794                       # number of demand (read+write) misses
system.l2c.demand_misses::total                410154                       # number of demand (read+write) misses
system.l2c.overall_misses::cpu0.inst            14035                       # number of overall misses
system.l2c.overall_misses::cpu0.data           388087                       # number of overall misses
system.l2c.overall_misses::cpu1.inst             1238                       # number of overall misses
system.l2c.overall_misses::cpu1.data             6794                       # number of overall misses
system.l2c.overall_misses::total               410154                       # number of overall misses
system.l2c.ReadReq_miss_latency::cpu0.inst   1067454245                       # number of ReadReq miss cycles
system.l2c.ReadReq_miss_latency::cpu0.data  17881620237                       # number of ReadReq miss cycles
system.l2c.ReadReq_miss_latency::cpu1.inst     96862500                       # number of ReadReq miss cycles
system.l2c.ReadReq_miss_latency::cpu1.data     35356999                       # number of ReadReq miss cycles
system.l2c.ReadReq_miss_latency::total    19081293981                       # number of ReadReq miss cycles
system.l2c.UpgradeReq_miss_latency::cpu0.data       964468                       # number of UpgradeReq miss cycles
system.l2c.UpgradeReq_miss_latency::cpu1.data      4567794                       # number of UpgradeReq miss cycles
system.l2c.UpgradeReq_miss_latency::total      5532262                       # number of UpgradeReq miss cycles
system.l2c.SCUpgradeReq_miss_latency::cpu0.data       972461                       # number of SCUpgradeReq miss cycles
system.l2c.SCUpgradeReq_miss_latency::cpu1.data       114995                       # number of SCUpgradeReq miss cycles
system.l2c.SCUpgradeReq_miss_latency::total      1087456                       # number of SCUpgradeReq miss cycles
system.l2c.ReadExReq_miss_latency::cpu0.data   9393947733                       # number of ReadExReq miss cycles
system.l2c.ReadExReq_miss_latency::cpu1.data    639497214                       # number of ReadExReq miss cycles
system.l2c.ReadExReq_miss_latency::total  10033444947                       # number of ReadExReq miss cycles
system.l2c.demand_miss_latency::cpu0.inst   1067454245                       # number of demand (read+write) miss cycles
system.l2c.demand_miss_latency::cpu0.data  27275567970                       # number of demand (read+write) miss cycles
system.l2c.demand_miss_latency::cpu1.inst     96862500                       # number of demand (read+write) miss cycles
system.l2c.demand_miss_latency::cpu1.data    674854213                       # number of demand (read+write) miss cycles
system.l2c.demand_miss_latency::total     29114738928                       # number of demand (read+write) miss cycles
system.l2c.overall_miss_latency::cpu0.inst   1067454245                       # number of overall miss cycles
system.l2c.overall_miss_latency::cpu0.data  27275567970                       # number of overall miss cycles
system.l2c.overall_miss_latency::cpu1.inst     96862500                       # number of overall miss cycles
system.l2c.overall_miss_latency::cpu1.data    674854213                       # number of overall miss cycles
system.l2c.overall_miss_latency::total    29114738928                       # number of overall miss cycles
system.l2c.ReadReq_accesses::cpu0.inst         881651                       # number of ReadReq accesses(hits+misses)
system.l2c.ReadReq_accesses::cpu0.data        1010009                       # number of ReadReq accesses(hits+misses)
system.l2c.ReadReq_accesses::cpu1.inst         211366                       # number of ReadReq accesses(hits+misses)
system.l2c.ReadReq_accesses::cpu1.data          68362                       # number of ReadReq accesses(hits+misses)
system.l2c.ReadReq_accesses::total            2171388                       # number of ReadReq accesses(hits+misses)
system.l2c.Writeback_accesses::writebacks       822208                       # number of Writeback accesses(hits+misses)
system.l2c.Writeback_accesses::total           822208                       # number of Writeback accesses(hits+misses)
system.l2c.UpgradeReq_accesses::cpu0.data         2842                       # number of UpgradeReq accesses(hits+misses)
system.l2c.UpgradeReq_accesses::cpu1.data         1317                       # number of UpgradeReq accesses(hits+misses)
system.l2c.UpgradeReq_accesses::total            4159                       # number of UpgradeReq accesses(hits+misses)
system.l2c.SCUpgradeReq_accesses::cpu0.data          455                       # number of SCUpgradeReq accesses(hits+misses)
system.l2c.SCUpgradeReq_accesses::cpu1.data          458                       # number of SCUpgradeReq accesses(hits+misses)
system.l2c.SCUpgradeReq_accesses::total           913                       # number of SCUpgradeReq accesses(hits+misses)
system.l2c.ReadExReq_accesses::cpu0.data       269131                       # number of ReadExReq accesses(hits+misses)
system.l2c.ReadExReq_accesses::cpu1.data        31923                       # number of ReadExReq accesses(hits+misses)
system.l2c.ReadExReq_accesses::total           301054                       # number of ReadExReq accesses(hits+misses)
system.l2c.demand_accesses::cpu0.inst          881651                       # number of demand (read+write) accesses
system.l2c.demand_accesses::cpu0.data         1279140                       # number of demand (read+write) accesses
system.l2c.demand_accesses::cpu1.inst          211366                       # number of demand (read+write) accesses
system.l2c.demand_accesses::cpu1.data          100285                       # number of demand (read+write) accesses
system.l2c.demand_accesses::total             2472442                       # number of demand (read+write) accesses
system.l2c.overall_accesses::cpu0.inst         881651                       # number of overall (read+write) accesses
system.l2c.overall_accesses::cpu0.data        1279140                       # number of overall (read+write) accesses
system.l2c.overall_accesses::cpu1.inst         211366                       # number of overall (read+write) accesses
system.l2c.overall_accesses::cpu1.data         100285                       # number of overall (read+write) accesses
system.l2c.overall_accesses::total            2472442                       # number of overall (read+write) accesses
system.l2c.ReadReq_miss_rate::cpu0.inst      0.015919                       # miss rate for ReadReq accesses
system.l2c.ReadReq_miss_rate::cpu0.data      0.270683                       # miss rate for ReadReq accesses
system.l2c.ReadReq_miss_rate::cpu1.inst      0.005857                       # miss rate for ReadReq accesses
system.l2c.ReadReq_miss_rate::cpu1.data      0.006612                       # miss rate for ReadReq accesses
system.l2c.ReadReq_miss_rate::total          0.133148                       # miss rate for ReadReq accesses
system.l2c.UpgradeReq_miss_rate::cpu0.data     0.940535                       # miss rate for UpgradeReq accesses
system.l2c.UpgradeReq_miss_rate::cpu1.data     0.801822                       # miss rate for UpgradeReq accesses
system.l2c.UpgradeReq_miss_rate::total       0.896610                       # miss rate for UpgradeReq accesses
system.l2c.SCUpgradeReq_miss_rate::cpu0.data     0.892308                       # miss rate for SCUpgradeReq accesses
system.l2c.SCUpgradeReq_miss_rate::cpu1.data     0.947598                       # miss rate for SCUpgradeReq accesses
system.l2c.SCUpgradeReq_miss_rate::total     0.920044                       # miss rate for SCUpgradeReq accesses
system.l2c.ReadExReq_miss_rate::cpu0.data     0.426168                       # miss rate for ReadExReq accesses
system.l2c.ReadExReq_miss_rate::cpu1.data     0.198666                       # miss rate for ReadExReq accesses
system.l2c.ReadExReq_miss_rate::total        0.402044                       # miss rate for ReadExReq accesses
system.l2c.demand_miss_rate::cpu0.inst       0.015919                       # miss rate for demand accesses
system.l2c.demand_miss_rate::cpu0.data       0.303397                       # miss rate for demand accesses
system.l2c.demand_miss_rate::cpu1.inst       0.005857                       # miss rate for demand accesses
system.l2c.demand_miss_rate::cpu1.data       0.067747                       # miss rate for demand accesses
system.l2c.demand_miss_rate::total           0.165890                       # miss rate for demand accesses
system.l2c.overall_miss_rate::cpu0.inst      0.015919                       # miss rate for overall accesses
system.l2c.overall_miss_rate::cpu0.data      0.303397                       # miss rate for overall accesses
system.l2c.overall_miss_rate::cpu1.inst      0.005857                       # miss rate for overall accesses
system.l2c.overall_miss_rate::cpu1.data      0.067747                       # miss rate for overall accesses
system.l2c.overall_miss_rate::total          0.165890                       # miss rate for overall accesses
system.l2c.ReadReq_avg_miss_latency::cpu0.inst 76056.590310                       # average ReadReq miss latency
system.l2c.ReadReq_avg_miss_latency::cpu0.data 65406.523369                       # average ReadReq miss latency
system.l2c.ReadReq_avg_miss_latency::cpu1.inst 78241.114701                       # average ReadReq miss latency
system.l2c.ReadReq_avg_miss_latency::cpu1.data 78223.449115                       # average ReadReq miss latency
system.l2c.ReadReq_avg_miss_latency::total 65998.519565                       # average ReadReq miss latency
system.l2c.UpgradeReq_avg_miss_latency::cpu0.data   360.818556                       # average UpgradeReq miss latency
system.l2c.UpgradeReq_avg_miss_latency::cpu1.data  4325.562500                       # average UpgradeReq miss latency
system.l2c.UpgradeReq_avg_miss_latency::total  1483.577903                       # average UpgradeReq miss latency
system.l2c.SCUpgradeReq_avg_miss_latency::cpu0.data  2395.224138                       # average SCUpgradeReq miss latency
system.l2c.SCUpgradeReq_avg_miss_latency::cpu1.data   264.965438                       # average SCUpgradeReq miss latency
system.l2c.SCUpgradeReq_avg_miss_latency::total  1294.590476                       # average SCUpgradeReq miss latency
system.l2c.ReadExReq_avg_miss_latency::cpu0.data 81903.724949                       # average ReadExReq miss latency
system.l2c.ReadExReq_avg_miss_latency::cpu1.data 100835.259224                       # average ReadExReq miss latency
system.l2c.ReadExReq_avg_miss_latency::total 82895.684353                       # average ReadExReq miss latency
system.l2c.demand_avg_miss_latency::cpu0.inst 76056.590310                       # average overall miss latency
system.l2c.demand_avg_miss_latency::cpu0.data 70282.096463                       # average overall miss latency
system.l2c.demand_avg_miss_latency::cpu1.inst 78241.114701                       # average overall miss latency
system.l2c.demand_avg_miss_latency::cpu1.data 99330.911540                       # average overall miss latency
system.l2c.demand_avg_miss_latency::total 70984.895742                       # average overall miss latency
system.l2c.overall_avg_miss_latency::cpu0.inst 76056.590310                       # average overall miss latency
system.l2c.overall_avg_miss_latency::cpu0.data 70282.096463                       # average overall miss latency
system.l2c.overall_avg_miss_latency::cpu1.inst 78241.114701                       # average overall miss latency
system.l2c.overall_avg_miss_latency::cpu1.data 99330.911540                       # average overall miss latency
system.l2c.overall_avg_miss_latency::total 70984.895742                       # average overall miss latency
system.l2c.blocked_cycles::no_mshrs                 0                       # number of cycles access was blocked
system.l2c.blocked_cycles::no_targets               0                       # number of cycles access was blocked
system.l2c.blocked::no_mshrs                        0                       # number of cycles access was blocked
system.l2c.blocked::no_targets                      0                       # number of cycles access was blocked
system.l2c.avg_blocked_cycles::no_mshrs           nan                       # average number of cycles each access was blocked
system.l2c.avg_blocked_cycles::no_targets          nan                       # average number of cycles each access was blocked
system.l2c.fast_writes                              0                       # number of fast writes performed
system.l2c.cache_copies                             0                       # number of cache copies performed
system.l2c.writebacks::writebacks               80619                       # number of writebacks
system.l2c.writebacks::total                    80619                       # number of writebacks
system.l2c.ReadReq_mshr_hits::cpu0.inst             9                       # number of ReadReq MSHR hits
system.l2c.ReadReq_mshr_hits::cpu1.inst             8                       # number of ReadReq MSHR hits
system.l2c.ReadReq_mshr_hits::cpu1.data             1                       # number of ReadReq MSHR hits
system.l2c.ReadReq_mshr_hits::total                18                       # number of ReadReq MSHR hits
system.l2c.demand_mshr_hits::cpu0.inst              9                       # number of demand (read+write) MSHR hits
system.l2c.demand_mshr_hits::cpu1.inst              8                       # number of demand (read+write) MSHR hits
system.l2c.demand_mshr_hits::cpu1.data              1                       # number of demand (read+write) MSHR hits
system.l2c.demand_mshr_hits::total                 18                       # number of demand (read+write) MSHR hits
system.l2c.overall_mshr_hits::cpu0.inst             9                       # number of overall MSHR hits
system.l2c.overall_mshr_hits::cpu1.inst             8                       # number of overall MSHR hits
system.l2c.overall_mshr_hits::cpu1.data             1                       # number of overall MSHR hits
system.l2c.overall_mshr_hits::total                18                       # number of overall MSHR hits
system.l2c.ReadReq_mshr_misses::cpu0.inst        14026                       # number of ReadReq MSHR misses
system.l2c.ReadReq_mshr_misses::cpu0.data       273392                       # number of ReadReq MSHR misses
system.l2c.ReadReq_mshr_misses::cpu1.inst         1230                       # number of ReadReq MSHR misses
system.l2c.ReadReq_mshr_misses::cpu1.data          451                       # number of ReadReq MSHR misses
system.l2c.ReadReq_mshr_misses::total          289099                       # number of ReadReq MSHR misses
system.l2c.UpgradeReq_mshr_misses::cpu0.data         2673                       # number of UpgradeReq MSHR misses
system.l2c.UpgradeReq_mshr_misses::cpu1.data         1056                       # number of UpgradeReq MSHR misses
system.l2c.UpgradeReq_mshr_misses::total         3729                       # number of UpgradeReq MSHR misses
system.l2c.SCUpgradeReq_mshr_misses::cpu0.data          406                       # number of SCUpgradeReq MSHR misses
system.l2c.SCUpgradeReq_mshr_misses::cpu1.data          434                       # number of SCUpgradeReq MSHR misses
system.l2c.SCUpgradeReq_mshr_misses::total          840                       # number of SCUpgradeReq MSHR misses
system.l2c.ReadExReq_mshr_misses::cpu0.data       114695                       # number of ReadExReq MSHR misses
system.l2c.ReadExReq_mshr_misses::cpu1.data         6342                       # number of ReadExReq MSHR misses
system.l2c.ReadExReq_mshr_misses::total        121037                       # number of ReadExReq MSHR misses
system.l2c.demand_mshr_misses::cpu0.inst        14026                       # number of demand (read+write) MSHR misses
system.l2c.demand_mshr_misses::cpu0.data       388087                       # number of demand (read+write) MSHR misses
system.l2c.demand_mshr_misses::cpu1.inst         1230                       # number of demand (read+write) MSHR misses
system.l2c.demand_mshr_misses::cpu1.data         6793                       # number of demand (read+write) MSHR misses
system.l2c.demand_mshr_misses::total           410136                       # number of demand (read+write) MSHR misses
system.l2c.overall_mshr_misses::cpu0.inst        14026                       # number of overall MSHR misses
system.l2c.overall_mshr_misses::cpu0.data       388087                       # number of overall MSHR misses
system.l2c.overall_mshr_misses::cpu1.inst         1230                       # number of overall MSHR misses
system.l2c.overall_mshr_misses::cpu1.data         6793                       # number of overall MSHR misses
system.l2c.overall_mshr_misses::total          410136                       # number of overall MSHR misses
system.l2c.ReadReq_mshr_miss_latency::cpu0.inst    890067005                       # number of ReadReq MSHR miss cycles
system.l2c.ReadReq_mshr_miss_latency::cpu0.data  14473617763                       # number of ReadReq MSHR miss cycles
system.l2c.ReadReq_mshr_miss_latency::cpu1.inst     80840000                       # number of ReadReq MSHR miss cycles
system.l2c.ReadReq_mshr_miss_latency::cpu1.data     29712501                       # number of ReadReq MSHR miss cycles
system.l2c.ReadReq_mshr_miss_latency::total  15474237269                       # number of ReadReq MSHR miss cycles
system.l2c.UpgradeReq_mshr_miss_latency::cpu0.data     26950129                       # number of UpgradeReq MSHR miss cycles
system.l2c.UpgradeReq_mshr_miss_latency::cpu1.data     10569046                       # number of UpgradeReq MSHR miss cycles
system.l2c.UpgradeReq_mshr_miss_latency::total     37519175                       # number of UpgradeReq MSHR miss cycles
system.l2c.SCUpgradeReq_mshr_miss_latency::cpu0.data      4153902                       # number of SCUpgradeReq MSHR miss cycles
system.l2c.SCUpgradeReq_mshr_miss_latency::cpu1.data      4341434                       # number of SCUpgradeReq MSHR miss cycles
system.l2c.SCUpgradeReq_mshr_miss_latency::total      8495336                       # number of SCUpgradeReq MSHR miss cycles
system.l2c.ReadExReq_mshr_miss_latency::cpu0.data   7989750261                       # number of ReadExReq MSHR miss cycles
system.l2c.ReadExReq_mshr_miss_latency::cpu1.data    560973786                       # number of ReadExReq MSHR miss cycles
system.l2c.ReadExReq_mshr_miss_latency::total   8550724047                       # number of ReadExReq MSHR miss cycles
system.l2c.demand_mshr_miss_latency::cpu0.inst    890067005                       # number of demand (read+write) MSHR miss cycles
system.l2c.demand_mshr_miss_latency::cpu0.data  22463368024                       # number of demand (read+write) MSHR miss cycles
system.l2c.demand_mshr_miss_latency::cpu1.inst     80840000                       # number of demand (read+write) MSHR miss cycles
system.l2c.demand_mshr_miss_latency::cpu1.data    590686287                       # number of demand (read+write) MSHR miss cycles
system.l2c.demand_mshr_miss_latency::total  24024961316                       # number of demand (read+write) MSHR miss cycles
system.l2c.overall_mshr_miss_latency::cpu0.inst    890067005                       # number of overall MSHR miss cycles
system.l2c.overall_mshr_miss_latency::cpu0.data  22463368024                       # number of overall MSHR miss cycles
system.l2c.overall_mshr_miss_latency::cpu1.inst     80840000                       # number of overall MSHR miss cycles
system.l2c.overall_mshr_miss_latency::cpu1.data    590686287                       # number of overall MSHR miss cycles
system.l2c.overall_mshr_miss_latency::total  24024961316                       # number of overall MSHR miss cycles
system.l2c.ReadReq_mshr_uncacheable_latency::cpu0.data   1367392500                       # number of ReadReq MSHR uncacheable cycles
system.l2c.ReadReq_mshr_uncacheable_latency::cpu1.data     22035500                       # number of ReadReq MSHR uncacheable cycles
system.l2c.ReadReq_mshr_uncacheable_latency::total   1389428000                       # number of ReadReq MSHR uncacheable cycles
system.l2c.WriteReq_mshr_uncacheable_latency::cpu0.data   2022747000                       # number of WriteReq MSHR uncacheable cycles
system.l2c.WriteReq_mshr_uncacheable_latency::cpu1.data    583651500                       # number of WriteReq MSHR uncacheable cycles
system.l2c.WriteReq_mshr_uncacheable_latency::total   2606398500                       # number of WriteReq MSHR uncacheable cycles
system.l2c.overall_mshr_uncacheable_latency::cpu0.data   3390139500                       # number of overall MSHR uncacheable cycles
system.l2c.overall_mshr_uncacheable_latency::cpu1.data    605687000                       # number of overall MSHR uncacheable cycles
system.l2c.overall_mshr_uncacheable_latency::total   3995826500                       # number of overall MSHR uncacheable cycles
system.l2c.ReadReq_mshr_miss_rate::cpu0.inst     0.015909                       # mshr miss rate for ReadReq accesses
system.l2c.ReadReq_mshr_miss_rate::cpu0.data     0.270683                       # mshr miss rate for ReadReq accesses
system.l2c.ReadReq_mshr_miss_rate::cpu1.inst     0.005819                       # mshr miss rate for ReadReq accesses
system.l2c.ReadReq_mshr_miss_rate::cpu1.data     0.006597                       # mshr miss rate for ReadReq accesses
system.l2c.ReadReq_mshr_miss_rate::total     0.133140                       # mshr miss rate for ReadReq accesses
system.l2c.UpgradeReq_mshr_miss_rate::cpu0.data     0.940535                       # mshr miss rate for UpgradeReq accesses
system.l2c.UpgradeReq_mshr_miss_rate::cpu1.data     0.801822                       # mshr miss rate for UpgradeReq accesses
system.l2c.UpgradeReq_mshr_miss_rate::total     0.896610                       # mshr miss rate for UpgradeReq accesses
system.l2c.SCUpgradeReq_mshr_miss_rate::cpu0.data     0.892308                       # mshr miss rate for SCUpgradeReq accesses
system.l2c.SCUpgradeReq_mshr_miss_rate::cpu1.data     0.947598                       # mshr miss rate for SCUpgradeReq accesses
system.l2c.SCUpgradeReq_mshr_miss_rate::total     0.920044                       # mshr miss rate for SCUpgradeReq accesses
system.l2c.ReadExReq_mshr_miss_rate::cpu0.data     0.426168                       # mshr miss rate for ReadExReq accesses
system.l2c.ReadExReq_mshr_miss_rate::cpu1.data     0.198666                       # mshr miss rate for ReadExReq accesses
system.l2c.ReadExReq_mshr_miss_rate::total     0.402044                       # mshr miss rate for ReadExReq accesses
system.l2c.demand_mshr_miss_rate::cpu0.inst     0.015909                       # mshr miss rate for demand accesses
system.l2c.demand_mshr_miss_rate::cpu0.data     0.303397                       # mshr miss rate for demand accesses
system.l2c.demand_mshr_miss_rate::cpu1.inst     0.005819                       # mshr miss rate for demand accesses
system.l2c.demand_mshr_miss_rate::cpu1.data     0.067737                       # mshr miss rate for demand accesses
system.l2c.demand_mshr_miss_rate::total      0.165883                       # mshr miss rate for demand accesses
system.l2c.overall_mshr_miss_rate::cpu0.inst     0.015909                       # mshr miss rate for overall accesses
system.l2c.overall_mshr_miss_rate::cpu0.data     0.303397                       # mshr miss rate for overall accesses
system.l2c.overall_mshr_miss_rate::cpu1.inst     0.005819                       # mshr miss rate for overall accesses
system.l2c.overall_mshr_miss_rate::cpu1.data     0.067737                       # mshr miss rate for overall accesses
system.l2c.overall_mshr_miss_rate::total     0.165883                       # mshr miss rate for overall accesses
system.l2c.ReadReq_avg_mshr_miss_latency::cpu0.inst 63458.363397                       # average ReadReq mshr miss latency
system.l2c.ReadReq_avg_mshr_miss_latency::cpu0.data 52940.897184                       # average ReadReq mshr miss latency
system.l2c.ReadReq_avg_mshr_miss_latency::cpu1.inst 65723.577236                       # average ReadReq mshr miss latency
system.l2c.ReadReq_avg_mshr_miss_latency::cpu1.data 65881.376940                       # average ReadReq mshr miss latency
system.l2c.ReadReq_avg_mshr_miss_latency::total 53525.737789                       # average ReadReq mshr miss latency
system.l2c.UpgradeReq_avg_mshr_miss_latency::cpu0.data 10082.352787                       # average UpgradeReq mshr miss latency
system.l2c.UpgradeReq_avg_mshr_miss_latency::cpu1.data 10008.566288                       # average UpgradeReq mshr miss latency
system.l2c.UpgradeReq_avg_mshr_miss_latency::total 10061.457495                       # average UpgradeReq mshr miss latency
system.l2c.SCUpgradeReq_avg_mshr_miss_latency::cpu0.data 10231.285714                       # average SCUpgradeReq mshr miss latency
system.l2c.SCUpgradeReq_avg_mshr_miss_latency::cpu1.data 10003.304147                       # average SCUpgradeReq mshr miss latency
system.l2c.SCUpgradeReq_avg_mshr_miss_latency::total 10113.495238                       # average SCUpgradeReq mshr miss latency
system.l2c.ReadExReq_avg_mshr_miss_latency::cpu0.data 69660.841894                       # average ReadExReq mshr miss latency
system.l2c.ReadExReq_avg_mshr_miss_latency::cpu1.data 88453.766320                       # average ReadExReq mshr miss latency
system.l2c.ReadExReq_avg_mshr_miss_latency::total 70645.538530                       # average ReadExReq mshr miss latency
system.l2c.demand_avg_mshr_miss_latency::cpu0.inst 63458.363397                       # average overall mshr miss latency
system.l2c.demand_avg_mshr_miss_latency::cpu0.data 57882.299649                       # average overall mshr miss latency
system.l2c.demand_avg_mshr_miss_latency::cpu1.inst 65723.577236                       # average overall mshr miss latency
system.l2c.demand_avg_mshr_miss_latency::cpu1.data 86955.143088                       # average overall mshr miss latency
system.l2c.demand_avg_mshr_miss_latency::total 58578.035861                       # average overall mshr miss latency
system.l2c.overall_avg_mshr_miss_latency::cpu0.inst 63458.363397                       # average overall mshr miss latency
system.l2c.overall_avg_mshr_miss_latency::cpu0.data 57882.299649                       # average overall mshr miss latency
system.l2c.overall_avg_mshr_miss_latency::cpu1.inst 65723.577236                       # average overall mshr miss latency
system.l2c.overall_avg_mshr_miss_latency::cpu1.data 86955.143088                       # average overall mshr miss latency
system.l2c.overall_avg_mshr_miss_latency::total 58578.035861                       # average overall mshr miss latency
system.l2c.ReadReq_avg_mshr_uncacheable_latency::cpu0.data          inf                       # average ReadReq mshr uncacheable latency
system.l2c.ReadReq_avg_mshr_uncacheable_latency::cpu1.data          inf                       # average ReadReq mshr uncacheable latency
system.l2c.ReadReq_avg_mshr_uncacheable_latency::total          inf                       # average ReadReq mshr uncacheable latency
system.l2c.WriteReq_avg_mshr_uncacheable_latency::cpu0.data          inf                       # average WriteReq mshr uncacheable latency
system.l2c.WriteReq_avg_mshr_uncacheable_latency::cpu1.data          inf                       # average WriteReq mshr uncacheable latency
system.l2c.WriteReq_avg_mshr_uncacheable_latency::total          inf                       # average WriteReq mshr uncacheable latency
system.l2c.overall_avg_mshr_uncacheable_latency::cpu0.data          inf                       # average overall mshr uncacheable latency
system.l2c.overall_avg_mshr_uncacheable_latency::cpu1.data          inf                       # average overall mshr uncacheable latency
system.l2c.overall_avg_mshr_uncacheable_latency::total          inf                       # average overall mshr uncacheable latency
system.l2c.no_allocate_misses                       0                       # Number of misses that were no-allocate
system.iocache.tags.replacements                41695                       # number of replacements
system.iocache.tags.tagsinuse                0.491978                       # Cycle average of tags in use
system.iocache.tags.total_refs                      0                       # Total number of references to valid blocks.
system.iocache.tags.sampled_refs                41711                       # Sample count of references to valid blocks.
system.iocache.tags.avg_refs                        0                       # Average number of references to valid blocks.
system.iocache.tags.warmup_cycle         1712295759000                       # Cycle when the warmup percentage was hit.
system.iocache.tags.occ_blocks::tsunami.ide     0.491978                       # Average occupied blocks per requestor
system.iocache.tags.occ_percent::tsunami.ide     0.030749                       # Average percentage of cache occupancy
system.iocache.tags.occ_percent::total       0.030749                       # Average percentage of cache occupancy
system.iocache.tags.occ_task_id_blocks::1023           16                       # Occupied blocks per task id
system.iocache.tags.age_task_id_blocks_1023::2           16                       # Occupied blocks per task id
system.iocache.tags.occ_task_id_percent::1023            1                       # Percentage of cache occupancy per task id
system.iocache.tags.tag_accesses               375543                       # Number of tag accesses
system.iocache.tags.data_accesses              375543                       # Number of data accesses
system.iocache.ReadReq_misses::tsunami.ide          175                       # number of ReadReq misses
system.iocache.ReadReq_misses::total              175                       # number of ReadReq misses
system.iocache.WriteReq_misses::tsunami.ide        41552                       # number of WriteReq misses
system.iocache.WriteReq_misses::total           41552                       # number of WriteReq misses
system.iocache.demand_misses::tsunami.ide        41727                       # number of demand (read+write) misses
system.iocache.demand_misses::total             41727                       # number of demand (read+write) misses
system.iocache.overall_misses::tsunami.ide        41727                       # number of overall misses
system.iocache.overall_misses::total            41727                       # number of overall misses
system.iocache.ReadReq_miss_latency::tsunami.ide     21492883                       # number of ReadReq miss cycles
system.iocache.ReadReq_miss_latency::total     21492883                       # number of ReadReq miss cycles
system.iocache.WriteReq_miss_latency::tsunami.ide  12499299192                       # number of WriteReq miss cycles
system.iocache.WriteReq_miss_latency::total  12499299192                       # number of WriteReq miss cycles
system.iocache.demand_miss_latency::tsunami.ide  12520792075                       # number of demand (read+write) miss cycles
system.iocache.demand_miss_latency::total  12520792075                       # number of demand (read+write) miss cycles
system.iocache.overall_miss_latency::tsunami.ide  12520792075                       # number of overall miss cycles
system.iocache.overall_miss_latency::total  12520792075                       # number of overall miss cycles
system.iocache.ReadReq_accesses::tsunami.ide          175                       # number of ReadReq accesses(hits+misses)
[...]
system.cpu1.dcache.overall_avg_mshr_miss_latency::cpu1.data 16482.099688                       # average overall mshr miss latency
system.cpu1.dcache.overall_avg_mshr_miss_latency::total 16482.099688                       # average overall mshr miss latency
system.cpu1.dcache.ReadReq_avg_mshr_uncacheable_latency::cpu1.data          inf                       # average ReadReq mshr uncacheable latency
system.cpu1.dcache.ReadReq_avg_mshr_uncacheable_latency::total          inf                       # average ReadReq mshr uncacheable latency
system.cpu1.dcache.WriteReq_avg_mshr_uncacheable_latency::cpu1.data          inf                       # average WriteReq mshr uncacheable latency
system.cpu1.dcache.WriteReq_avg_mshr_uncacheable_latency::total          inf                       # average WriteReq mshr uncacheable latency
system.cpu1.dcache.overall_avg_mshr_uncacheable_latency::cpu1.data          inf                       # average overall mshr uncacheable latency
system.cpu1.dcache.overall_avg_mshr_uncacheable_latency::total          inf                       # average overall mshr uncacheable latency
system.cpu1.dcache.no_allocate_misses               0                       # Number of misses that were no-allocate
system.cpu0.kern.inst.arm                           0                       # number of arm instructions executed
system.cpu0.kern.inst.quiesce                    6589                       # number of quiesce instructions executed
system.cpu0.kern.inst.hwrei                    184914                       # number of hwrei instructions executed
system.cpu0.kern.ipl_count::0                   65370     40.53%     40.53% # number of times we switched to this ipl
system.cpu0.kern.ipl_count::21                    131      0.08%     40.61% # number of times we switched to this ipl
system.cpu0.kern.ipl_count::22                   1926      1.19%     41.80% # number of times we switched to this ipl
system.cpu0.kern.ipl_count::30                    186      0.12%     41.92% # number of times we switched to this ipl
system.cpu0.kern.ipl_count::31                  93691     58.08%    100.00% # number of times we switched to this ipl
system.cpu0.kern.ipl_count::total              161304                       # number of times we switched to this ipl
system.cpu0.kern.ipl_good::0                    64362     49.21%     49.21% # number of times we switched to this ipl from a different ipl
system.cpu0.kern.ipl_good::21                     131      0.10%     49.31% # number of times we switched to this ipl from a different ipl
system.cpu0.kern.ipl_good::22                    1926      1.47%     50.79% # number of times we switched to this ipl from a different ipl
system.cpu0.kern.ipl_good::30                     186      0.14%     50.93% # number of times we switched to this ipl from a different ipl
system.cpu0.kern.ipl_good::31                   64176     49.07%    100.00% # number of times we switched to this ipl from a different ipl
system.cpu0.kern.ipl_good::total               130781                       # number of times we switched to this ipl from a different ipl
system.cpu0.kern.ipl_ticks::0            1863832959500     97.81%     97.81% # number of cycles we spent at this ipl
system.cpu0.kern.ipl_ticks::21               63684000      0.00%     97.81% # number of cycles we spent at this ipl
system.cpu0.kern.ipl_ticks::22              569763500      0.03%     97.84% # number of cycles we spent at this ipl
system.cpu0.kern.ipl_ticks::30               89287000      0.00%     97.84% # number of cycles we spent at this ipl
system.cpu0.kern.ipl_ticks::31            41094897500      2.16%    100.00% # number of cycles we spent at this ipl
system.cpu0.kern.ipl_ticks::total        1905650591500                       # number of cycles we spent at this ipl
system.cpu0.kern.ipl_used::0                 0.984580                       # fraction of swpipl calls that actually changed the ipl
system.cpu0.kern.ipl_used::21                       1                       # fraction of swpipl calls that actually changed the ipl
system.cpu0.kern.ipl_used::22                       1                       # fraction of swpipl calls that actually changed the ipl
system.cpu0.kern.ipl_used::30                       1                       # fraction of swpipl calls that actually changed the ipl
system.cpu0.kern.ipl_used::31                0.684975                       # fraction of swpipl calls that actually changed the ipl
system.cpu0.kern.ipl_used::total             0.810773                       # fraction of swpipl calls that actually changed the ipl
system.cpu0.kern.syscall::2                         7      3.32%      3.32% # number of syscalls executed
system.cpu0.kern.syscall::3                        17      8.06%     11.37% # number of syscalls executed
system.cpu0.kern.syscall::4                         4      1.90%     13.27% # number of syscalls executed
system.cpu0.kern.syscall::6                        29     13.74%     27.01% # number of syscalls executed
system.cpu0.kern.syscall::12                        1      0.47%     27.49% # number of syscalls executed
system.cpu0.kern.syscall::17                       10      4.74%     32.23% # number of syscalls executed
system.cpu0.kern.syscall::19                        7      3.32%     35.55% # number of syscalls executed
system.cpu0.kern.syscall::20                        4      1.90%     37.44% # number of syscalls executed
system.cpu0.kern.syscall::23                        1      0.47%     37.91% # number of syscalls executed
system.cpu0.kern.syscall::24                        3      1.42%     39.34% # number of syscalls executed
system.cpu0.kern.syscall::33                        8      3.79%     43.13% # number of syscalls executed
system.cpu0.kern.syscall::41                        2      0.95%     44.08% # number of syscalls executed
system.cpu0.kern.syscall::45                       37     17.54%     61.61% # number of syscalls executed
system.cpu0.kern.syscall::47                        3      1.42%     63.03% # number of syscalls executed
system.cpu0.kern.syscall::48                        8      3.79%     66.82% # number of syscalls executed
system.cpu0.kern.syscall::54                        9      4.27%     71.09% # number of syscalls executed
system.cpu0.kern.syscall::58                        1      0.47%     71.56% # number of syscalls executed
system.cpu0.kern.syscall::59                        5      2.37%     73.93% # number of syscalls executed
system.cpu0.kern.syscall::71                       27     12.80%     86.73% # number of syscalls executed
system.cpu0.kern.syscall::73                        3      1.42%     88.15% # number of syscalls executed
system.cpu0.kern.syscall::74                        7      3.32%     91.47% # number of syscalls executed
system.cpu0.kern.syscall::87                        1      0.47%     91.94% # number of syscalls executed
system.cpu0.kern.syscall::90                        2      0.95%     92.89% # number of syscalls executed
system.cpu0.kern.syscall::92                        7      3.32%     96.21% # number of syscalls executed
system.cpu0.kern.syscall::97                        2      0.95%     97.16% # number of syscalls executed
system.cpu0.kern.syscall::98                        2      0.95%     98.10% # number of syscalls executed
system.cpu0.kern.syscall::132                       1      0.47%     98.58% # number of syscalls executed
system.cpu0.kern.syscall::144                       1      0.47%     99.05% # number of syscalls executed
system.cpu0.kern.syscall::147                       2      0.95%    100.00% # number of syscalls executed
system.cpu0.kern.syscall::total                   211                       # number of syscalls executed
system.cpu0.kern.callpal::cserve                    1      0.00%      0.00% # number of callpals executed
system.cpu0.kern.callpal::wripir                  277      0.16%      0.16% # number of callpals executed
system.cpu0.kern.callpal::wrmces                    1      0.00%      0.16% # number of callpals executed
system.cpu0.kern.callpal::wrfen                     1      0.00%      0.16% # number of callpals executed
system.cpu0.kern.callpal::wrvptptr                  1      0.00%      0.17% # number of callpals executed
system.cpu0.kern.callpal::swpctx                 3529      2.08%      2.24% # number of callpals executed
system.cpu0.kern.callpal::tbi                      48      0.03%      2.27% # number of callpals executed
system.cpu0.kern.callpal::wrent                     7      0.00%      2.27% # number of callpals executed
system.cpu0.kern.callpal::swpipl               154533     90.92%     93.20% # number of callpals executed
system.cpu0.kern.callpal::rdps                   6537      3.85%     97.04% # number of callpals executed
system.cpu0.kern.callpal::wrkgp                     1      0.00%     97.04% # number of callpals executed
system.cpu0.kern.callpal::wrusp                     4      0.00%     97.05% # number of callpals executed
system.cpu0.kern.callpal::rdusp                     8      0.00%     97.05% # number of callpals executed
system.cpu0.kern.callpal::whami                     2      0.00%     97.05% # number of callpals executed
system.cpu0.kern.callpal::rti                    4527      2.66%     99.72% # number of callpals executed
system.cpu0.kern.callpal::callsys                 345      0.20%     99.92% # number of callpals executed
system.cpu0.kern.callpal::imb                     137      0.08%    100.00% # number of callpals executed
system.cpu0.kern.callpal::total                169959                       # number of callpals executed
system.cpu0.kern.mode_switch::kernel             7072                       # number of protection mode switches
system.cpu0.kern.mode_switch::user               1287                       # number of protection mode switches
system.cpu0.kern.mode_switch::idle                  0                       # number of protection mode switches
system.cpu0.kern.mode_good::kernel               1286                      
system.cpu0.kern.mode_good::user                 1287                      
system.cpu0.kern.mode_good::idle                    0                      
system.cpu0.kern.mode_switch_good::kernel     0.181844                       # fraction of useful protection mode switches
system.cpu0.kern.mode_switch_good::user             1                       # fraction of useful protection mode switches
system.cpu0.kern.mode_switch_good::idle           nan                       # fraction of useful protection mode switches
system.cpu0.kern.mode_switch_good::total     0.307812                       # fraction of useful protection mode switches
system.cpu0.kern.mode_ticks::kernel      1903707301000     99.90%     99.90% # number of ticks spent at the given mode
system.cpu0.kern.mode_ticks::user          1943282500      0.10%    100.00% # number of ticks spent at the given mode
system.cpu0.kern.mode_ticks::idle                   0      0.00%    100.00% # number of ticks spent at the given mode
system.cpu0.kern.swap_context                    3530                       # number of times the context was actually changed
system.cpu1.kern.inst.arm                           0                       # number of arm instructions executed
system.cpu1.kern.inst.quiesce                    2439                       # number of quiesce instructions executed
system.cpu1.kern.inst.hwrei                     54740                       # number of hwrei instructions executed
system.cpu1.kern.ipl_count::0                   16948     36.40%     36.40% # number of times we switched to this ipl
system.cpu1.kern.ipl_count::22                   1925      4.13%     40.53% # number of times we switched to this ipl
system.cpu1.kern.ipl_count::30                    277      0.59%     41.13% # number of times we switched to this ipl
system.cpu1.kern.ipl_count::31                  27412     58.87%    100.00% # number of times we switched to this ipl
system.cpu1.kern.ipl_count::total               46562                       # number of times we switched to this ipl
system.cpu1.kern.ipl_good::0                    16579     47.26%     47.26% # number of times we switched to this ipl from a different ipl
system.cpu1.kern.ipl_good::22                    1925      5.49%     52.74% # number of times we switched to this ipl from a different ipl
system.cpu1.kern.ipl_good::30                     277      0.79%     53.53% # number of times we switched to this ipl from a different ipl
system.cpu1.kern.ipl_good::31                   16302     46.47%    100.00% # number of times we switched to this ipl from a different ipl
system.cpu1.kern.ipl_good::total                35083                       # number of times we switched to this ipl from a different ipl
system.cpu1.kern.ipl_ticks::0            1874130150000     98.36%     98.36% # number of cycles we spent at this ipl
system.cpu1.kern.ipl_ticks::22              532183000      0.03%     98.39% # number of cycles we spent at this ipl
system.cpu1.kern.ipl_ticks::30              125676500      0.01%     98.40% # number of cycles we spent at this ipl
system.cpu1.kern.ipl_ticks::31            30535391000      1.60%    100.00% # number of cycles we spent at this ipl
system.cpu1.kern.ipl_ticks::total        1905323400500                       # number of cycles we spent at this ipl
system.cpu1.kern.ipl_used::0                 0.978228                       # fraction of swpipl calls that actually changed the ipl
system.cpu1.kern.ipl_used::22                       1                       # fraction of swpipl calls that actually changed the ipl
system.cpu1.kern.ipl_used::30                       1                       # fraction of swpipl calls that actually changed the ipl
system.cpu1.kern.ipl_used::31                0.594703                       # fraction of swpipl calls that actually changed the ipl
system.cpu1.kern.ipl_used::total             0.753468                       # fraction of swpipl calls that actually changed the ipl
system.cpu1.kern.syscall::2                         1      0.87%      0.87% # number of syscalls executed
system.cpu1.kern.syscall::3                        13     11.30%     12.17% # number of syscalls executed
system.cpu1.kern.syscall::6                        13     11.30%     23.48% # number of syscalls executed
system.cpu1.kern.syscall::15                        1      0.87%     24.35% # number of syscalls executed
system.cpu1.kern.syscall::17                        5      4.35%     28.70% # number of syscalls executed
system.cpu1.kern.syscall::19                        3      2.61%     31.30% # number of syscalls executed
system.cpu1.kern.syscall::20                        2      1.74%     33.04% # number of syscalls executed
system.cpu1.kern.syscall::23                        3      2.61%     35.65% # number of syscalls executed
system.cpu1.kern.syscall::24                        3      2.61%     38.26% # number of syscalls executed
system.cpu1.kern.syscall::33                        3      2.61%     40.87% # number of syscalls executed
system.cpu1.kern.syscall::45                       17     14.78%     55.65% # number of syscalls executed
system.cpu1.kern.syscall::47                        3      2.61%     58.26% # number of syscalls executed
system.cpu1.kern.syscall::48                        2      1.74%     60.00% # number of syscalls executed
system.cpu1.kern.syscall::54                        1      0.87%     60.87% # number of syscalls executed
system.cpu1.kern.syscall::59                        2      1.74%     62.61% # number of syscalls executed
system.cpu1.kern.syscall::71                       27     23.48%     86.09% # number of syscalls executed
system.cpu1.kern.syscall::74                        9      7.83%     93.91% # number of syscalls executed
system.cpu1.kern.syscall::90                        1      0.87%     94.78% # number of syscalls executed
system.cpu1.kern.syscall::92                        2      1.74%     96.52% # number of syscalls executed
system.cpu1.kern.syscall::132                       3      2.61%     99.13% # number of syscalls executed
system.cpu1.kern.syscall::144                       1      0.87%    100.00% # number of syscalls executed
system.cpu1.kern.syscall::total                   115                       # number of syscalls executed
system.cpu1.kern.callpal::cserve                    1      0.00%      0.00% # number of callpals executed
system.cpu1.kern.callpal::wripir                  186      0.39%      0.39% # number of callpals executed
system.cpu1.kern.callpal::wrmces                    1      0.00%      0.39% # number of callpals executed
system.cpu1.kern.callpal::wrfen                     1      0.00%      0.39% # number of callpals executed
system.cpu1.kern.callpal::swpctx                 1067      2.22%      2.61% # number of callpals executed
system.cpu1.kern.callpal::tbi                       6      0.01%      2.63% # number of callpals executed
system.cpu1.kern.callpal::wrent                     7      0.01%      2.64% # number of callpals executed
system.cpu1.kern.callpal::swpipl                41329     85.97%     88.61% # number of callpals executed
system.cpu1.kern.callpal::rdps                   2224      4.63%     93.23% # number of callpals executed
system.cpu1.kern.callpal::wrkgp                     1      0.00%     93.23% # number of callpals executed
system.cpu1.kern.callpal::wrusp                     3      0.01%     93.24% # number of callpals executed
system.cpu1.kern.callpal::rdusp                     1      0.00%     93.24% # number of callpals executed
system.cpu1.kern.callpal::whami                     3      0.01%     93.25% # number of callpals executed
system.cpu1.kern.callpal::rti                    3030      6.30%     99.55% # number of callpals executed
system.cpu1.kern.callpal::callsys                 172      0.36%     99.91% # number of callpals executed
system.cpu1.kern.callpal::imb                      43      0.09%    100.00% # number of callpals executed
system.cpu1.kern.callpal::rdunique                  1      0.00%    100.00% # number of callpals executed
system.cpu1.kern.callpal::total                 48076                       # number of callpals executed
system.cpu1.kern.mode_switch::kernel             1341                       # number of protection mode switches
system.cpu1.kern.mode_switch::user                460                       # number of protection mode switches
system.cpu1.kern.mode_switch::idle               2398                       # number of protection mode switches
system.cpu1.kern.mode_good::kernel                662                      
system.cpu1.kern.mode_good::user                  460                      
system.cpu1.kern.mode_good::idle                  202                      
system.cpu1.kern.mode_switch_good::kernel     0.493661                       # fraction of useful protection mode switches
system.cpu1.kern.mode_switch_good::user             1                       # fraction of useful protection mode switches
system.cpu1.kern.mode_switch_good::idle      0.084237                       # fraction of useful protection mode switches
system.cpu1.kern.mode_switch_good::total     0.315313                       # fraction of useful protection mode switches
system.cpu1.kern.mode_ticks::kernel        4271038500      0.22%      0.22% # number of ticks spent at the given mode
system.cpu1.kern.mode_ticks::user           809340000      0.04%      0.27% # number of ticks spent at the given mode
system.cpu1.kern.mode_ticks::idle        1900232555000     99.73%    100.00% # number of ticks spent at the given mode
system.cpu1.kern.swap_context                    1068                       # number of times the context was actually changed

---------- End Simulation Statistics   ----------
