
---------- Begin Simulation Statistics ----------
sim_seconds                                  1.903338                       # Number of seconds simulated
sim_ticks                                1903338216000                       # Number of ticks simulated
final_tick                               1903338216000                       # Number of ticks from beginning of simulation (restored from checkpoints and never reset)
sim_freq                                 1000000000000                       # Frequency of simulated ticks
host_inst_rate                                 150214                       # Simulator instruction rate (inst/s)
host_op_rate                                   150214                       # Simulator op (including micro ops) rate (op/s)
host_tick_rate                             5096064990                       # Simulator tick rate (ticks/s)
host_mem_usage                                 314972                       # Number of bytes of host memory used
host_seconds                                   373.49                       # Real time elapsed on the host
sim_insts                                    56103611                       # Number of instructions simulated
sim_ops                                      56103611                       # Number of ops (including micro ops) simulated
system.voltage_domain.voltage                       1                       # Voltage in Volts
system.clk_domain.clock                          1000                       # Clock period in ticks
system.physmem.bytes_read::cpu0.inst           740992                       # Number of bytes read from this memory
system.physmem.bytes_read::cpu0.data         24346432                       # Number of bytes read from this memory
system.physmem.bytes_read::tsunami.ide        2650176                       # Number of bytes read from this memory
system.physmem.bytes_read::cpu1.inst           236544                       # Number of bytes read from this memory
system.physmem.bytes_read::cpu1.data           996032                       # Number of bytes read from this memory
system.physmem.bytes_read::total             28970176                       # Number of bytes read from this memory
system.physmem.bytes_inst_read::cpu0.inst       740992                       # Number of instructions bytes read from this memory
system.physmem.bytes_inst_read::cpu1.inst       236544                       # Number of instructions bytes read from this memory
system.physmem.bytes_inst_read::total          977536                       # Number of instructions bytes read from this memory
system.physmem.bytes_written::writebacks      7923904                       # Number of bytes written to this memory
system.physmem.bytes_written::total           7923904                       # Number of bytes written to this memory
system.physmem.num_reads::cpu0.inst             11578                       # Number of read requests responded to by this memory
system.physmem.num_reads::cpu0.data            380413                       # Number of read requests responded to by this memory
system.physmem.num_reads::tsunami.ide           41409                       # Number of read requests responded to by this memory
system.physmem.num_reads::cpu1.inst              3696                       # Number of read requests responded to by this memory
system.physmem.num_reads::cpu1.data             15563                       # Number of read requests responded to by this memory
system.physmem.num_reads::total                452659                       # Number of read requests responded to by this memory
system.physmem.num_writes::writebacks          123811                       # Number of write requests responded to by this memory
system.physmem.num_writes::total               123811                       # Number of write requests responded to by this memory
system.physmem.bw_read::cpu0.inst              389312                       # Total read bandwidth from this memory (bytes/s)
system.physmem.bw_read::cpu0.data            12791438                       # Total read bandwidth from this memory (bytes/s)
system.physmem.bw_read::tsunami.ide           1392383                       # Total read bandwidth from this memory (bytes/s)
system.physmem.bw_read::cpu1.inst              124278                       # Total read bandwidth from this memory (bytes/s)
system.physmem.bw_read::cpu1.data              523308                       # Total read bandwidth from this memory (bytes/s)
system.physmem.bw_read::total                15220719                       # Total read bandwidth from this memory (bytes/s)
system.physmem.bw_inst_read::cpu0.inst         389312                       # Instruction read bandwidth from this memory (bytes/s)
system.physmem.bw_inst_read::cpu1.inst         124278                       # Instruction read bandwidth from this memory (bytes/s)
system.physmem.bw_inst_read::total             513590                       # Instruction read bandwidth from this memory (bytes/s)
system.physmem.bw_write::writebacks           4163161                       # Write bandwidth from this memory (bytes/s)
system.physmem.bw_write::total                4163161                       # Write bandwidth from this memory (bytes/s)
system.physmem.bw_total::writebacks           4163161                       # Total bandwidth to/from this memory (bytes/s)
system.physmem.bw_total::cpu0.inst             389312                       # Total bandwidth to/from this memory (bytes/s)
system.physmem.bw_total::cpu0.data           12791438                       # Total bandwidth to/from this memory (bytes/s)
system.physmem.bw_total::tsunami.ide          1392383                       # Total bandwidth to/from this memory (bytes/s)
system.physmem.bw_total::cpu1.inst             124278                       # Total bandwidth to/from this memory (bytes/s)
system.physmem.bw_total::cpu1.data             523308                       # Total bandwidth to/from this memory (bytes/s)
system.physmem.bw_total::total               19383880                       # Total bandwidth to/from this memory (bytes/s)
system.physmem.readReqs                        452659                       # Number of read requests accepted
system.physmem.writeReqs                       123811                       # Number of write requests accepted
system.physmem.readBursts                      452659                       # Number of DRAM read bursts, including those serviced by the write queue
system.physmem.writeBursts                     123811                       # Number of DRAM write bursts, including those merged in the write queue
system.physmem.bytesReadDRAM                 28966400                       # Total number of bytes read from DRAM
system.physmem.bytesReadWrQ                      3776                       # Total number of bytes read from write queue
system.physmem.bytesWritten                   7923264                       # Total number of bytes written to DRAM
system.physmem.bytesReadSys                  28970176                       # Total read bytes from the system interface side
system.physmem.bytesWrittenSys                7923904                       # Total written bytes from the system interface side
system.physmem.servicedByWrQ                       59                       # Number of DRAM read bursts serviced by the write queue
system.physmem.mergedWrBursts                       0                       # Number of DRAM write bursts merged with an existing one
system.physmem.neitherReadNorWriteReqs           3474                       # Number of requests that are neither read nor write
system.physmem.perBankRdBursts::0               28542                       # Per bank write bursts
system.physmem.perBankRdBursts::1               28115                       # Per bank write bursts
system.physmem.perBankRdBursts::2               28449                       # Per bank write bursts
system.physmem.perBankRdBursts::3               28319                       # Per bank write bursts
system.physmem.perBankRdBursts::4               28001                       # Per bank write bursts
system.physmem.perBankRdBursts::5               28388                       # Per bank write bursts
system.physmem.perBankRdBursts::6               28437                       # Per bank write bursts
system.physmem.perBankRdBursts::7               28681                       # Per bank write bursts
system.physmem.perBankRdBursts::8               28670                       # Per bank write bursts
system.physmem.perBankRdBursts::9               28576                       # Per bank write bursts
system.physmem.perBankRdBursts::10              28034                       # Per bank write bursts
system.physmem.perBankRdBursts::11              27899                       # Per bank write bursts
system.physmem.perBankRdBursts::12              27884                       # Per bank write bursts
system.physmem.perBankRdBursts::13              28245                       # Per bank write bursts
system.physmem.perBankRdBursts::14              28268                       # Per bank write bursts
system.physmem.perBankRdBursts::15              28092                       # Per bank write bursts
system.physmem.perBankWrBursts::0                8222                       # Per bank write bursts
system.physmem.perBankWrBursts::1                7571                       # Per bank write bursts
system.physmem.perBankWrBursts::2                7821                       # Per bank write bursts
system.physmem.perBankWrBursts::3                7782                       # Per bank write bursts
system.physmem.perBankWrBursts::4                7428                       # Per bank write bursts
system.physmem.perBankWrBursts::5                7859                       # Per bank write bursts
system.physmem.perBankWrBursts::6                7924                       # Per bank write bursts
system.physmem.perBankWrBursts::7                7992                       # Per bank write bursts
system.physmem.perBankWrBursts::8                7912                       # Per bank write bursts
system.physmem.perBankWrBursts::9                7920                       # Per bank write bursts
system.physmem.perBankWrBursts::10               7418                       # Per bank write bursts
system.physmem.perBankWrBursts::11               7297                       # Per bank write bursts
system.physmem.perBankWrBursts::12               7319                       # Per bank write bursts
system.physmem.perBankWrBursts::13               7829                       # Per bank write bursts
system.physmem.perBankWrBursts::14               7922                       # Per bank write bursts
system.physmem.perBankWrBursts::15               7585                       # Per bank write bursts
system.physmem.numRdRetry                           0                       # Number of times read queue was full causing retry
system.physmem.numWrRetry                          11                       # Number of times write queue was full causing retry
system.physmem.totGap                    1903333578000                       # Total gap between requests
system.physmem.readPktSize::0                       0                       # Read request sizes (log2)
system.physmem.readPktSize::1                       0                       # Read request sizes (log2)
system.physmem.readPktSize::2                       0                       # Read request sizes (log2)
system.physmem.readPktSize::3                       0                       # Read request sizes (log2)
system.physmem.readPktSize::4                       0                       # Read request sizes (log2)
system.physmem.readPktSize::5                       0                       # Read request sizes (log2)
system.physmem.readPktSize::6                  452659                       # Read request sizes (log2)
system.physmem.writePktSize::0                      0                       # Write request sizes (log2)
system.physmem.writePktSize::1                      0                       # Write request sizes (log2)
system.physmem.writePktSize::2                      0                       # Write request sizes (log2)
system.physmem.writePktSize::3                      0                       # Write request sizes (log2)
system.physmem.writePktSize::4                      0                       # Write request sizes (log2)
system.physmem.writePktSize::5                      0                       # Write request sizes (log2)
system.physmem.writePktSize::6                 123811                       # Write request sizes (log2)
system.physmem.rdQLenPdf::0                    323009                       # What read queue length does an incoming req see
system.physmem.rdQLenPdf::1                     67548                       # What read queue length does an incoming req see
system.physmem.rdQLenPdf::2                     34699                       # What read queue length does an incoming req see
system.physmem.rdQLenPdf::3                      6478                       # What read queue length does an incoming req see
system.physmem.rdQLenPdf::4                      2371                       # What read queue length does an incoming req see
system.physmem.rdQLenPdf::5                      2334                       # What read queue length does an incoming req see
system.physmem.rdQLenPdf::6                      1401                       # What read queue length does an incoming req see
system.physmem.rdQLenPdf::7                      1384                       # What read queue length does an incoming req see
system.physmem.rdQLenPdf::8                      1370                       # What read queue length does an incoming req see
system.physmem.rdQLenPdf::9                      1491                       # What read queue length does an incoming req see
system.physmem.rdQLenPdf::10                     1342                       # What read queue length does an incoming req see
system.physmem.rdQLenPdf::11                     1292                       # What read queue length does an incoming req see
system.physmem.rdQLenPdf::12                     1112                       # What read queue length does an incoming req see
system.physmem.rdQLenPdf::13                      975                       # What read queue length does an incoming req see
system.physmem.rdQLenPdf::14                      964                       # What read queue length does an incoming req see
system.physmem.rdQLenPdf::15                      959                       # What read queue length does an incoming req see
system.physmem.rdQLenPdf::16                      957                       # What read queue length does an incoming req see
system.physmem.rdQLenPdf::17                      955                       # What read queue length does an incoming req see
system.physmem.rdQLenPdf::18                      964                       # What read queue length does an incoming req see
system.physmem.rdQLenPdf::19                      962                       # What read queue length does an incoming req see
system.physmem.rdQLenPdf::20                       15                       # What read queue length does an incoming req see
system.physmem.rdQLenPdf::21                        9                       # What read queue length does an incoming req see
system.physmem.rdQLenPdf::22                        5                       # What read queue length does an incoming req see
system.physmem.rdQLenPdf::23                        4                       # What read queue length does an incoming req see
system.physmem.rdQLenPdf::24                        0                       # What read queue length does an incoming req see
system.physmem.rdQLenPdf::25                        0                       # What read queue length does an incoming req see
system.physmem.rdQLenPdf::26                        0                       # What read queue length does an incoming req see
system.physmem.rdQLenPdf::27                        0                       # What read queue length does an incoming req see
system.physmem.rdQLenPdf::28                        0                       # What read queue length does an incoming req see
system.physmem.rdQLenPdf::29                        0                       # What read queue length does an incoming req see
system.physmem.rdQLenPdf::30                        0                       # What read queue length does an incoming req see
system.physmem.rdQLenPdf::31                        0                       # What read queue length does an incoming req see
system.physmem.wrQLenPdf::0                      4849                       # What write queue length does an incoming req see
system.physmem.wrQLenPdf::1                      4883                       # What write queue length does an incoming req see
system.physmem.wrQLenPdf::2                      4897                       # What write queue length does an incoming req see
system.physmem.wrQLenPdf::3                      5584                       # What write queue length does an incoming req see
system.physmem.wrQLenPdf::4                      6333                       # What write queue length does an incoming req see
system.physmem.wrQLenPdf::5                      5671                       # What write queue length does an incoming req see
system.physmem.wrQLenPdf::6                      5669                       # What write queue length does an incoming req see
system.physmem.wrQLenPdf::7                      5751                       # What write queue length does an incoming req see
system.physmem.wrQLenPdf::8                      5810                       # What write queue length does an incoming req see
system.physmem.wrQLenPdf::9                      5108                       # What write queue length does an incoming req see
system.physmem.wrQLenPdf::10                     5105                       # What write queue length does an incoming req see
system.physmem.wrQLenPdf::11                     5103                       # What write queue length does an incoming req see
system.physmem.wrQLenPdf::12                     5948                       # What write queue length does an incoming req see
system.physmem.wrQLenPdf::13                     6051                       # What write queue length does an incoming req see
system.physmem.wrQLenPdf::14                     6046                       # What write queue length does an incoming req see
system.physmem.wrQLenPdf::15                     6136                       # What write queue length does an incoming req see
system.physmem.wrQLenPdf::16                     6172                       # What write queue length does an incoming req see
system.physmem.wrQLenPdf::17                     5299                       # What write queue length does an incoming req see
system.physmem.wrQLenPdf::18                     5396                       # What write queue length does an incoming req see
system.physmem.wrQLenPdf::19                     5248                       # What write queue length does an incoming req see
system.physmem.wrQLenPdf::20                     5812                       # What write queue length does an incoming req see
system.physmem.wrQLenPdf::21                     6208                       # What write queue length does an incoming req see
system.physmem.wrQLenPdf::22                      343                       # What write queue length does an incoming req see
system.physmem.wrQLenPdf::23                      192                       # What write queue length does an incoming req see
system.physmem.wrQLenPdf::24                       46                       # What write queue length does an incoming req see
system.physmem.wrQLenPdf::25                       30                       # What write queue length does an incoming req see
system.physmem.wrQLenPdf::26                       22                       # What write queue length does an incoming req see
system.physmem.wrQLenPdf::27                       22                       # What write queue length does an incoming req see
system.physmem.wrQLenPdf::28                       18                       # What write queue length does an incoming req see
system.physmem.wrQLenPdf::29                       18                       # What write queue length does an incoming req see
system.physmem.wrQLenPdf::30                       17                       # What write queue length does an incoming req see
system.physmem.wrQLenPdf::31                       24                       # What write queue length does an incoming req see
system.physmem.bytesPerActivate::samples        47120                       # Bytes accessed per row activation
system.physmem.bytesPerActivate::mean      782.856367                       # Bytes accessed per row activation
system.physmem.bytesPerActivate::gmean     226.112166                       # Bytes accessed per row activation
system.physmem.bytesPerActivate::stdev    1866.075506                       # Bytes accessed per row activation
system.physmem.bytesPerActivate::64-67          16751     35.55%     35.55% # Bytes accessed per row activation
system.physmem.bytesPerActivate::128-131         6847     14.53%     50.08% # Bytes accessed per row activation
system.physmem.bytesPerActivate::192-195         4876     10.35%     60.43% # Bytes accessed per row activation
system.physmem.bytesPerActivate::256-259         2833      6.01%     66.44% # Bytes accessed per row activation
system.physmem.bytesPerActivate::320-323         1808      3.84%     70.28% # Bytes accessed per row activation
system.physmem.bytesPerActivate::384-387         1449      3.08%     73.35% # Bytes accessed per row activation
system.physmem.bytesPerActivate::448-451         1103      2.34%     75.69% # Bytes accessed per row activation
system.physmem.bytesPerActivate::512-515          806      1.71%     77.40% # Bytes accessed per row activation
system.physmem.bytesPerActivate::576-579          633      1.34%     78.75% # Bytes accessed per row activation
system.physmem.bytesPerActivate::640-643          628      1.33%     80.08% # Bytes accessed per row activation
system.physmem.bytesPerActivate::704-707          650      1.38%     81.46% # Bytes accessed per row activation
system.physmem.bytesPerActivate::768-771          508      1.08%     82.54% # Bytes accessed per row activation
system.physmem.bytesPerActivate::832-835          311      0.66%     83.20% # Bytes accessed per row activation
system.physmem.bytesPerActivate::896-899          305      0.65%     83.85% # Bytes accessed per row activation
system.physmem.bytesPerActivate::960-963          262      0.56%     84.40% # Bytes accessed per row activation
system.physmem.bytesPerActivate::1024-1027          366      0.78%     85.18% # Bytes accessed per row activation
system.physmem.bytesPerActivate::1088-1091          155      0.33%     85.51% # Bytes accessed per row activation
system.physmem.bytesPerActivate::1152-1155          210      0.45%     85.95% # Bytes accessed per row activation
system.physmem.bytesPerActivate::1216-1219          130      0.28%     86.23% # Bytes accessed per row activation
system.physmem.bytesPerActivate::1280-1283          135      0.29%     86.52% # Bytes accessed per row activation
system.physmem.bytesPerActivate::1344-1347          148      0.31%     86.83% # Bytes accessed per row activation
system.physmem.bytesPerActivate::1408-1411          388      0.82%     87.65% # Bytes accessed per row activation
system.physmem.bytesPerActivate::1472-1475          228      0.48%     88.14% # Bytes accessed per row activation
system.physmem.bytesPerActivate::1536-1539          713      1.51%     89.65% # Bytes accessed per row activation
system.physmem.bytesPerActivate::1600-1603          124      0.26%     89.91% # Bytes accessed per row activation
system.physmem.bytesPerActivate::1664-1667           79      0.17%     90.08% # Bytes accessed per row activation
system.physmem.bytesPerActivate::1728-1731           68      0.14%     90.22% # Bytes accessed per row activation
system.physmem.bytesPerActivate::1792-1795          140      0.30%     90.52% # Bytes accessed per row activation
system.physmem.bytesPerActivate::1856-1859           59      0.13%     90.65% # Bytes accessed per row activation
system.physmem.bytesPerActivate::1920-1923           90      0.19%     90.84% # Bytes accessed per row activation
system.physmem.bytesPerActivate::1984-1987           49      0.10%     90.94% # Bytes accessed per row activation
system.physmem.bytesPerActivate::2048-2051           89      0.19%     91.13% # Bytes accessed per row activation
system.physmem.bytesPerActivate::2112-2115           69      0.15%     91.28% # Bytes accessed per row activation
system.physmem.bytesPerActivate::2176-2179           88      0.19%     91.46% # Bytes accessed per row activation
system.physmem.bytesPerActivate::2240-2243           28      0.06%     91.52% # Bytes accessed per row activation
system.physmem.bytesPerActivate::2304-2307           26      0.06%     91.58% # Bytes accessed per row activation
system.physmem.bytesPerActivate::2368-2371           54      0.11%     91.69% # Bytes accessed per row activation
system.physmem.bytesPerActivate::2432-2435           52      0.11%     91.80% # Bytes accessed per row activation
system.physmem.bytesPerActivate::2496-2499           27      0.06%     91.86% # Bytes accessed per row activation
system.physmem.bytesPerActivate::2560-2563           28      0.06%     91.92% # Bytes accessed per row activation
system.physmem.bytesPerActivate::2624-2627           27      0.06%     91.98% # Bytes accessed per row activation
system.physmem.bytesPerActivate::2688-2691           54      0.11%     92.09% # Bytes accessed per row activation
system.physmem.bytesPerActivate::2752-2755           53      0.11%     92.21% # Bytes accessed per row activation
system.physmem.bytesPerActivate::2816-2819           17      0.04%     92.24% # Bytes accessed per row activation
system.physmem.bytesPerActivate::2880-2883           31      0.07%     92.31% # Bytes accessed per row activation
system.physmem.bytesPerActivate::2944-2947           83      0.18%     92.48% # Bytes accessed per row activation
system.physmem.bytesPerActivate::3008-3011           40      0.08%     92.57% # Bytes accessed per row activation
system.physmem.bytesPerActivate::3072-3075           35      0.07%     92.64% # Bytes accessed per row activation
system.physmem.bytesPerActivate::3136-3139           42      0.09%     92.73% # Bytes accessed per row activation
system.physmem.bytesPerActivate::3200-3203           86      0.18%     92.91% # Bytes accessed per row activation
system.physmem.bytesPerActivate::3264-3267           24      0.05%     92.96% # Bytes accessed per row activation
system.physmem.bytesPerActivate::3328-3331           15      0.03%     93.00% # Bytes accessed per row activation
system.physmem.bytesPerActivate::3392-3395           51      0.11%     93.10% # Bytes accessed per row activation
system.physmem.bytesPerActivate::3456-3459           50      0.11%     93.21% # Bytes accessed per row activation
system.physmem.bytesPerActivate::3520-3523           24      0.05%     93.26% # Bytes accessed per row activation
system.physmem.bytesPerActivate::3584-3587           22      0.05%     93.31% # Bytes accessed per row activation
system.physmem.bytesPerActivate::3648-3651           24      0.05%     93.36% # Bytes accessed per row activation
system.physmem.bytesPerActivate::3712-3715           52      0.11%     93.47% # Bytes accessed per row activation
system.physmem.bytesPerActivate::3776-3779           51      0.11%     93.58% # Bytes accessed per row activation
system.physmem.bytesPerActivate::3840-3843           12      0.03%     93.60% # Bytes accessed per row activation
system.physmem.bytesPerActivate::3904-3907           29      0.06%     93.67% # Bytes accessed per row activation
system.physmem.bytesPerActivate::3968-3971           84      0.18%     93.84% # Bytes accessed per row activation
system.physmem.bytesPerActivate::4032-4035           41      0.09%     93.93% # Bytes accessed per row activation
system.physmem.bytesPerActivate::4096-4099           31      0.07%     94.00% # Bytes accessed per row activation
system.physmem.bytesPerActivate::4160-4163           38      0.08%     94.08% # Bytes accessed per row activation
system.physmem.bytesPerActivate::4224-4227           87      0.18%     94.26% # Bytes accessed per row activation
system.physmem.bytesPerActivate::4288-4291           24      0.05%     94.31% # Bytes accessed per row activation
system.physmem.bytesPerActivate::4352-4355           17      0.04%     94.35% # Bytes accessed per row activation
system.physmem.bytesPerActivate::4416-4419           52      0.11%     94.46% # Bytes accessed per row activation
system.physmem.bytesPerActivate::4480-4483           51      0.11%     94.57% # Bytes accessed per row activation
system.physmem.bytesPerActivate::4544-4547           24      0.05%     94.62% # Bytes accessed per row activation
system.physmem.bytesPerActivate::4608-4611           22      0.05%     94.66% # Bytes accessed per row activation
system.physmem.bytesPerActivate::4672-4675           23      0.05%     94.71% # Bytes accessed per row activation
system.physmem.bytesPerActivate::4736-4739           50      0.11%     94.82% # Bytes accessed per row activation
system.physmem.bytesPerActivate::4800-4803           51      0.11%     94.93% # Bytes accessed per row activation
system.physmem.bytesPerActivate::4864-4867           12      0.03%     94.95% # Bytes accessed per row activation
system.physmem.bytesPerActivate::4928-4931           27      0.06%     95.01% # Bytes accessed per row activation
system.physmem.bytesPerActivate::4992-4995           86      0.18%     95.19% # Bytes accessed per row activation
system.physmem.bytesPerActivate::5056-5059           41      0.09%     95.28% # Bytes accessed per row activation
system.physmem.bytesPerActivate::5120-5123           30      0.06%     95.34% # Bytes accessed per row activation
system.physmem.bytesPerActivate::5184-5187           39      0.08%     95.43% # Bytes accessed per row activation
system.physmem.bytesPerActivate::5248-5251           84      0.18%     95.60% # Bytes accessed per row activation
system.physmem.bytesPerActivate::5312-5315           24      0.05%     95.66% # Bytes accessed per row activation
system.physmem.bytesPerActivate::5376-5379            9      0.02%     95.67% # Bytes accessed per row activation
system.physmem.bytesPerActivate::5440-5443           53      0.11%     95.79% # Bytes accessed per row activation
system.physmem.bytesPerActivate::5504-5507           50      0.11%     95.89% # Bytes accessed per row activation
system.physmem.bytesPerActivate::5568-5571           23      0.05%     95.94% # Bytes accessed per row activation
system.physmem.bytesPerActivate::5632-5635           22      0.05%     95.99% # Bytes accessed per row activation
system.physmem.bytesPerActivate::5696-5699           22      0.05%     96.04% # Bytes accessed per row activation
system.physmem.bytesPerActivate::5760-5763           49      0.10%     96.14% # Bytes accessed per row activation
system.physmem.bytesPerActivate::5824-5827           50      0.11%     96.25% # Bytes accessed per row activation
system.physmem.bytesPerActivate::5888-5891            9      0.02%     96.26% # Bytes accessed per row activation
system.physmem.bytesPerActivate::5952-5955           25      0.05%     96.32% # Bytes accessed per row activation
system.physmem.bytesPerActivate::6016-6019           85      0.18%     96.50% # Bytes accessed per row activation
system.physmem.bytesPerActivate::6080-6083           41      0.09%     96.59% # Bytes accessed per row activation
system.physmem.bytesPerActivate::6144-6147           30      0.06%     96.65% # Bytes accessed per row activation
system.physmem.bytesPerActivate::6208-6211           42      0.09%     96.74% # Bytes accessed per row activation
system.physmem.bytesPerActivate::6272-6275           84      0.18%     96.92% # Bytes accessed per row activation
system.physmem.bytesPerActivate::6336-6339           24      0.05%     96.97% # Bytes accessed per row activation
system.physmem.bytesPerActivate::6400-6403           10      0.02%     96.99% # Bytes accessed per row activation
system.physmem.bytesPerActivate::6464-6467           52      0.11%     97.10% # Bytes accessed per row activation
system.physmem.bytesPerActivate::6528-6531           52      0.11%     97.21% # Bytes accessed per row activation
system.physmem.bytesPerActivate::6592-6595           24      0.05%     97.26% # Bytes accessed per row activation
system.physmem.bytesPerActivate::6656-6659           22      0.05%     97.31% # Bytes accessed per row activation
system.physmem.bytesPerActivate::6720-6723           25      0.05%     97.36% # Bytes accessed per row activation
system.physmem.bytesPerActivate::6784-6787           49      0.10%     97.46% # Bytes accessed per row activation
system.physmem.bytesPerActivate::6848-6851           49      0.10%     97.57% # Bytes accessed per row activation
system.physmem.bytesPerActivate::6912-6915            8      0.02%     97.58% # Bytes accessed per row activation
system.physmem.bytesPerActivate::6976-6979           27      0.06%     97.64% # Bytes accessed per row activation
system.physmem.bytesPerActivate::7040-7043           87      0.18%     97.83% # Bytes accessed per row activation
system.physmem.bytesPerActivate::7104-7107           41      0.09%     97.91% # Bytes accessed per row activation
system.physmem.bytesPerActivate::7168-7171          317      0.67%     98.59% # Bytes accessed per row activation
system.physmem.bytesPerActivate::7232-7235            1      0.00%     98.59% # Bytes accessed per row activation
system.physmem.bytesPerActivate::7296-7299            2      0.00%     98.59% # Bytes accessed per row activation
system.physmem.bytesPerActivate::7360-7363            1      0.00%     98.60% # Bytes accessed per row activation
system.physmem.bytesPerActivate::7424-7427            6      0.01%     98.61% # Bytes accessed per row activation
system.physmem.bytesPerActivate::7488-7491            1      0.00%     98.61% # Bytes accessed per row activation
system.physmem.bytesPerActivate::7616-7619            1      0.00%     98.61% # Bytes accessed per row activation
system.physmem.bytesPerActivate::7680-7683           14      0.03%     98.64% # Bytes accessed per row activation
system.physmem.bytesPerActivate::7744-7747            2      0.00%     98.65% # Bytes accessed per row activation
system.physmem.bytesPerActivate::7936-7939            8      0.02%     98.66% # Bytes accessed per row activation
system.physmem.bytesPerActivate::8000-8003            1      0.00%     98.67% # Bytes accessed per row activation
system.physmem.bytesPerActivate::8128-8131            3      0.01%     98.67% # Bytes accessed per row activation
system.physmem.bytesPerActivate::8192-8195          322      0.68%     99.35% # Bytes accessed per row activation
system.physmem.bytesPerActivate::8256-8259            1      0.00%     99.36% # Bytes accessed per row activation
system.physmem.bytesPerActivate::8384-8387            1      0.00%     99.36% # Bytes accessed per row activation
system.physmem.bytesPerActivate::8448-8451            1      0.00%     99.36% # Bytes accessed per row activation
system.physmem.bytesPerActivate::8640-8643            1      0.00%     99.36% # Bytes accessed per row activation
system.physmem.bytesPerActivate::8704-8707            2      0.00%     99.37% # Bytes accessed per row activation
system.physmem.bytesPerActivate::8768-8771            1      0.00%     99.37% # Bytes accessed per row activation
system.physmem.bytesPerActivate::8896-8899            1      0.00%     99.37% # Bytes accessed per row activation
system.physmem.bytesPerActivate::8960-8963            1      0.00%     99.37% # Bytes accessed per row activation
system.physmem.bytesPerActivate::9024-9027            1      0.00%     99.38% # Bytes accessed per row activation
system.physmem.bytesPerActivate::9088-9091            2      0.00%     99.38% # Bytes accessed per row activation
system.physmem.bytesPerActivate::9216-9219            2      0.00%     99.38% # Bytes accessed per row activation
system.physmem.bytesPerActivate::9344-9347            3      0.01%     99.39% # Bytes accessed per row activation
system.physmem.bytesPerActivate::9472-9475            1      0.00%     99.39% # Bytes accessed per row activation
system.physmem.bytesPerActivate::9664-9667            1      0.00%     99.40% # Bytes accessed per row activation
system.physmem.bytesPerActivate::9728-9731            2      0.00%     99.40% # Bytes accessed per row activation
system.physmem.bytesPerActivate::9856-9859            3      0.01%     99.41% # Bytes accessed per row activation
system.physmem.bytesPerActivate::10176-10179            1      0.00%     99.41% # Bytes accessed per row activation
system.physmem.bytesPerActivate::10304-10307            2      0.00%     99.41% # Bytes accessed per row activation
system.physmem.bytesPerActivate::10880-10883            1      0.00%     99.41% # Bytes accessed per row activation
system.physmem.bytesPerActivate::11328-11331            2      0.00%     99.42% # Bytes accessed per row activation
system.physmem.bytesPerActivate::11392-11395            2      0.00%     99.42% # Bytes accessed per row activation
system.physmem.bytesPerActivate::11456-11459            2      0.00%     99.43% # Bytes accessed per row activation
system.physmem.bytesPerActivate::11520-11523            1      0.00%     99.43% # Bytes accessed per row activation
system.physmem.bytesPerActivate::11584-11587            2      0.00%     99.43% # Bytes accessed per row activation
system.physmem.bytesPerActivate::11648-11651            1      0.00%     99.44% # Bytes accessed per row activation
system.physmem.bytesPerActivate::11712-11715            1      0.00%     99.44% # Bytes accessed per row activation
system.physmem.bytesPerActivate::11776-11779            1      0.00%     99.44% # Bytes accessed per row activation
system.physmem.bytesPerActivate::11840-11843            1      0.00%     99.44% # Bytes accessed per row activation
system.physmem.bytesPerActivate::11904-11907            2      0.00%     99.45% # Bytes accessed per row activation
system.physmem.bytesPerActivate::11968-11971            1      0.00%     99.45% # Bytes accessed per row activation
system.physmem.bytesPerActivate::12032-12035            4      0.01%     99.46% # Bytes accessed per row activation
system.physmem.bytesPerActivate::12416-12419            1      0.00%     99.46% # Bytes accessed per row activation
system.physmem.bytesPerActivate::12480-12483            1      0.00%     99.46% # Bytes accessed per row activation
system.physmem.bytesPerActivate::12544-12547            2      0.00%     99.47% # Bytes accessed per row activation
system.physmem.bytesPerActivate::12672-12675            2      0.00%     99.47% # Bytes accessed per row activation
system.physmem.bytesPerActivate::13056-13059            2      0.00%     99.47% # Bytes accessed per row activation
system.physmem.bytesPerActivate::13248-13251            2      0.00%     99.48% # Bytes accessed per row activation
system.physmem.bytesPerActivate::13312-13315            3      0.01%     99.48% # Bytes accessed per row activation
system.physmem.bytesPerActivate::13504-13507            1      0.00%     99.49% # Bytes accessed per row activation
system.physmem.bytesPerActivate::13568-13571            2      0.00%     99.49% # Bytes accessed per row activation
system.physmem.bytesPerActivate::13696-13699            3      0.01%     99.50% # Bytes accessed per row activation
system.physmem.bytesPerActivate::13952-13955            1      0.00%     99.50% # Bytes accessed per row activation
system.physmem.bytesPerActivate::14144-14147            2      0.00%     99.50% # Bytes accessed per row activation
system.physmem.bytesPerActivate::14208-14211            2      0.00%     99.51% # Bytes accessed per row activation
system.physmem.bytesPerActivate::14272-14275            2      0.00%     99.51% # Bytes accessed per row activation
system.physmem.bytesPerActivate::14336-14339            3      0.01%     99.52% # Bytes accessed per row activation
system.physmem.bytesPerActivate::14592-14595            2      0.00%     99.52% # Bytes accessed per row activation
system.physmem.bytesPerActivate::14784-14787            1      0.00%     99.52% # Bytes accessed per row activation
system.physmem.bytesPerActivate::14976-14979            1      0.00%     99.53% # Bytes accessed per row activation
system.physmem.bytesPerActivate::15040-15043            1      0.00%     99.53% # Bytes accessed per row activation
system.physmem.bytesPerActivate::15232-15235            2      0.00%     99.53% # Bytes accessed per row activation
system.physmem.bytesPerActivate::15360-15363           39      0.08%     99.62% # Bytes accessed per row activation
system.physmem.bytesPerActivate::15552-15555            2      0.00%     99.62% # Bytes accessed per row activation
system.physmem.bytesPerActivate::16000-16003            2      0.00%     99.62% # Bytes accessed per row activation
system.physmem.bytesPerActivate::16064-16067            1      0.00%     99.63% # Bytes accessed per row activation
system.physmem.bytesPerActivate::16192-16195            1      0.00%     99.63% # Bytes accessed per row activation
system.physmem.bytesPerActivate::16384-16387          175      0.37%    100.00% # Bytes accessed per row activation
system.physmem.bytesPerActivate::total          47120                       # Bytes accessed per row activation
system.physmem.totQLat                     8783315250                       # Total ticks spent queuing
system.physmem.totMemAccLat               16310447750                       # Total ticks spent from burst creation until serviced by the DRAM
system.physmem.totBusLat                   2263000000                       # Total ticks spent in databus transfers
system.physmem.totBankLat                  5264132500                       # Total ticks spent accessing banks
system.physmem.avgQLat                       19406.35                       # Average queueing delay per DRAM burst
system.physmem.avgBankLat                    11630.87                       # Average bank access latency per DRAM burst
system.physmem.avgBusLat                      5000.00                       # Average bus latency per DRAM burst
system.physmem.avgMemAccLat                  36037.22                       # Average memory access latency per DRAM burst
system.physmem.avgRdBW                          15.22                       # Average DRAM read bandwidth in MiByte/s
system.physmem.avgWrBW                           4.16                       # Average achieved write bandwidth in MiByte/s
system.physmem.avgRdBWSys                       15.22                       # Average system read bandwidth in MiByte/s
system.physmem.avgWrBWSys                        4.16                       # Average system write bandwidth in MiByte/s
system.physmem.peakBW                        12800.00                       # Theoretical peak bandwidth in MiByte/s
system.physmem.busUtil                           0.15                       # Data bus utilization in percentage
system.physmem.busUtilRead                       0.12                       # Data bus utilization in percentage for reads
system.physmem.busUtilWrite                      0.03                       # Data bus utilization in percentage for writes
system.physmem.avgRdQLen                         0.01                       # Average read queue length when enqueuing
system.physmem.avgWrQLen                         9.32                       # Average write queue length when enqueuing
system.physmem.readRowHits                     430734                       # Number of row buffer hits during reads
system.physmem.writeRowHits                     98547                       # Number of row buffer hits during writes
system.physmem.readRowHitRate                   95.17                       # Row buffer hit rate for reads
system.physmem.writeRowHitRate                  79.59                       # Row buffer hit rate for writes
system.physmem.avgGap                      3301704.47                       # Average gap between requests
system.physmem.pageHitRate                      91.82                       # Row buffer hit rate, read and write combined
system.physmem.prechargeAllPercent               0.41                       # Percentage of time for which DRAM has all the banks in precharge state
system.membus.throughput                     19439855                       # Throughput (bytes/s)
system.membus.trans_dist::ReadReq              296479                       # Transaction distribution
system.membus.trans_dist::ReadResp             296230                       # Transaction distribution
system.membus.trans_dist::WriteReq              12351                       # Transaction distribution
system.membus.trans_dist::WriteResp             12351                       # Transaction distribution
system.membus.trans_dist::Writeback            123811                       # Transaction distribution
system.membus.trans_dist::UpgradeReq             5304                       # Transaction distribution
system.membus.trans_dist::SCUpgradeReq           1475                       # Transaction distribution
system.membus.trans_dist::UpgradeResp            3474                       # Transaction distribution
system.membus.trans_dist::ReadExReq            164353                       # Transaction distribution
system.membus.trans_dist::ReadExResp           164224                       # Transaction distribution
system.membus.trans_dist::BadAddressError          249                       # Transaction distribution
system.membus.pkt_count_system.l2c.mem_side::system.bridge.slave        39094                       # Packet count per connected master and slave (bytes)
system.membus.pkt_count_system.l2c.mem_side::system.physmem.port       915454                       # Packet count per connected master and slave (bytes)
system.membus.pkt_count_system.l2c.mem_side::system.membus.badaddr_responder.pio          498                       # Packet count per connected master and slave (bytes)
system.membus.pkt_count_system.l2c.mem_side::total       955046                       # Packet count per connected master and slave (bytes)
system.membus.pkt_count_system.iocache.mem_side::system.physmem.port       124656                       # Packet count per connected master and slave (bytes)
system.membus.pkt_count_system.iocache.mem_side::total       124656                       # Packet count per connected master and slave (bytes)
system.membus.pkt_count::total                1079702                       # Packet count per connected master and slave (bytes)
system.membus.tot_pkt_size_system.l2c.mem_side::system.bridge.slave        68202                       # Cumulative packet size per connected master and slave (bytes)
system.membus.tot_pkt_size_system.l2c.mem_side::system.physmem.port     31586624                       # Cumulative packet size per connected master and slave (bytes)
system.membus.tot_pkt_size_system.l2c.mem_side::total     31654826                       # Cumulative packet size per connected master and slave (bytes)
system.membus.tot_pkt_size_system.iocache.mem_side::system.physmem.port      5307456                       # Cumulative packet size per connected master and slave (bytes)
system.membus.tot_pkt_size_system.iocache.mem_side::total      5307456                       # Cumulative packet size per connected master and slave (bytes)
system.membus.tot_pkt_size::total            36962282                       # Cumulative packet size per connected master and slave (bytes)
system.membus.data_through_bus               36962282                       # Total data (bytes)
system.membus.snoop_data_through_bus            38336                       # Total snoop data (bytes)
system.membus.reqLayer0.occupancy            36252500                       # Layer occupancy (ticks)
system.membus.reqLayer0.utilization               0.0                       # Layer utilization (%)
system.membus.reqLayer1.occupancy          1624596499                       # Layer occupancy (ticks)
system.membus.reqLayer1.utilization               0.1                       # Layer utilization (%)
system.membus.reqLayer2.occupancy              317500                       # Layer occupancy (ticks)
system.membus.reqLayer2.utilization               0.0                       # Layer utilization (%)
system.membus.respLayer1.occupancy         3836772510                       # Layer occupancy (ticks)
system.membus.respLayer1.utilization              0.2                       # Layer utilization (%)
system.membus.respLayer2.occupancy          376321991                       # Layer occupancy (ticks)
system.membus.respLayer2.utilization              0.0                       # Layer utilization (%)
system.cpu_clk_domain.clock                       500                       # Clock period in ticks
system.l2c.tags.replacements                   345713                       # number of replacements
system.l2c.tags.tagsinuse                65292.619294                       # Cycle average of tags in use
system.l2c.tags.total_refs                    2607692                       # Total number of references to valid blocks.
system.l2c.tags.sampled_refs                   410924                       # Sample count of references to valid blocks.
system.l2c.tags.avg_refs                     6.345923                       # Average number of references to valid blocks.
system.l2c.tags.warmup_cycle               7069563750                       # Cycle when the warmup percentage was hit.
system.l2c.tags.occ_blocks::writebacks   53648.503329                       # Average occupied blocks per requestor
system.l2c.tags.occ_blocks::cpu0.inst     4120.078366                       # Average occupied blocks per requestor
system.l2c.tags.occ_blocks::cpu0.data     5598.798644                       # Average occupied blocks per requestor
system.l2c.tags.occ_blocks::cpu1.inst     1365.340117                       # Average occupied blocks per requestor
system.l2c.tags.occ_blocks::cpu1.data      559.898838                       # Average occupied blocks per requestor
system.l2c.tags.occ_percent::writebacks      0.818611                       # Average percentage of cache occupancy
system.l2c.tags.occ_percent::cpu0.inst       0.062867                       # Average percentage of cache occupancy
system.l2c.tags.occ_percent::cpu0.data       0.085431                       # Average percentage of cache occupancy
system.l2c.tags.occ_percent::cpu1.inst       0.020833                       # Average percentage of cache occupancy
system.l2c.tags.occ_percent::cpu1.data       0.008543                       # Average percentage of cache occupancy
system.l2c.tags.occ_percent::total           0.996286                       # Average percentage of cache occupancy
system.l2c.tags.occ_task_id_blocks::1024        65211                       # Occupied blocks per task id
system.l2c.tags.age_task_id_blocks_1024::0          179                       # Occupied blocks per task id
system.l2c.tags.age_task_id_blocks_1024::1         2154                       # Occupied blocks per task id
system.l2c.tags.age_task_id_blocks_1024::2         5524                       # Occupied blocks per task id
system.l2c.tags.age_task_id_blocks_1024::3         6881                       # Occupied blocks per task id
system.l2c.tags.age_task_id_blocks_1024::4        50473                       # Occupied blocks per task id
system.l2c.tags.occ_task_id_percent::1024     0.995041                       # Percentage of cache occupancy per task id
system.l2c.tags.tag_accesses                 27399611                       # Number of tag accesses
system.l2c.tags.data_accesses                27399611                       # Number of data accesses
system.l2c.ReadReq_hits::cpu0.inst             754547                       # number of ReadReq hits
system.l2c.ReadReq_hits::cpu0.data             572386                       # number of ReadReq hits
system.l2c.ReadReq_hits::cpu1.inst             313557                       # number of ReadReq hits
system.l2c.ReadReq_hits::cpu1.data             249669                       # number of ReadReq hits
system.l2c.ReadReq_hits::total                1890159                       # number of ReadReq hits
system.l2c.Writeback_hits::writebacks          840492                       # number of Writeback hits
system.l2c.Writeback_hits::total               840492                       # number of Writeback hits
system.l2c.UpgradeReq_hits::cpu0.data             130                       # number of UpgradeReq hits
system.l2c.UpgradeReq_hits::cpu1.data              74                       # number of UpgradeReq hits
system.l2c.UpgradeReq_hits::total                 204                       # number of UpgradeReq hits
system.l2c.SCUpgradeReq_hits::cpu0.data            37                       # number of SCUpgradeReq hits
system.l2c.SCUpgradeReq_hits::cpu1.data            33                       # number of SCUpgradeReq hits
system.l2c.SCUpgradeReq_hits::total                70                       # number of SCUpgradeReq hits
system.l2c.ReadExReq_hits::cpu0.data           144073                       # number of ReadExReq hits
system.l2c.ReadExReq_hits::cpu1.data            44330                       # number of ReadExReq hits
system.l2c.ReadExReq_hits::total               188403                       # number of ReadExReq hits
system.l2c.demand_hits::cpu0.inst              754547                       # number of demand (read+write) hits
system.l2c.demand_hits::cpu0.data              716459                       # number of demand (read+write) hits
system.l2c.demand_hits::cpu1.inst              313557                       # number of demand (read+write) hits
system.l2c.demand_hits::cpu1.data              293999                       # number of demand (read+write) hits
system.l2c.demand_hits::total                 2078562                       # number of demand (read+write) hits
system.l2c.overall_hits::cpu0.inst             754547                       # number of overall hits
system.l2c.overall_hits::cpu0.data             716459                       # number of overall hits
system.l2c.overall_hits::cpu1.inst             313557                       # number of overall hits
system.l2c.overall_hits::cpu1.data             293999                       # number of overall hits
system.l2c.overall_hits::total                2078562                       # number of overall hits
system.l2c.ReadReq_misses::cpu0.inst            11586                       # number of ReadReq misses
system.l2c.ReadReq_misses::cpu0.data           272059                       # number of ReadReq misses
system.l2c.ReadReq_misses::cpu1.inst             3706                       # number of ReadReq misses
system.l2c.ReadReq_misses::cpu1.data             1775                       # number of ReadReq misses
system.l2c.ReadReq_misses::total               289126                       # number of ReadReq misses
system.l2c.UpgradeReq_misses::cpu0.data          2565                       # number of UpgradeReq misses
system.l2c.UpgradeReq_misses::cpu1.data           587                       # number of UpgradeReq misses
system.l2c.UpgradeReq_misses::total              3152                       # number of UpgradeReq misses
system.l2c.SCUpgradeReq_misses::cpu0.data           58                       # number of SCUpgradeReq misses
system.l2c.SCUpgradeReq_misses::cpu1.data          107                       # number of SCUpgradeReq misses
system.l2c.SCUpgradeReq_misses::total             165                       # number of SCUpgradeReq misses
system.l2c.ReadExReq_misses::cpu0.data         108741                       # number of ReadExReq misses
system.l2c.ReadExReq_misses::cpu1.data          14088                       # number of ReadExReq misses
system.l2c.ReadExReq_misses::total             122829                       # number of ReadExReq misses
system.l2c.demand_misses::cpu0.inst             11586                       # number of demand (read+write) misses
system.l2c.demand_misses::cpu0.data            380800                       # number of demand (read+write) misses
system.l2c.demand_misses::cpu1.inst              3706                       # number of demand (read+write) misses
system.l2c.demand_misses::cpu1.data             15863                       # number of demand (read+write) misses
system.l2c.demand_misses::total                411955                       # number of demand (read+write) misses
system.l2c.overall_misses::cpu0.inst            11586                       # number of overall misses
system.l2c.overall_misses::cpu0.data           380800                       # number of overall misses
system.l2c.overall_misses::cpu1.inst             3706                       # number of overall misses
system.l2c.overall_misses::cpu1.data            15863                       # number of overall misses
system.l2c.overall_misses::total               411955                       # number of overall misses
system.l2c.ReadReq_miss_latency::cpu0.inst    929054999                       # number of ReadReq miss cycles
system.l2c.ReadReq_miss_latency::cpu0.data  17693461250                       # number of ReadReq miss cycles
system.l2c.ReadReq_miss_latency::cpu1.inst    314236981                       # number of ReadReq miss cycles
system.l2c.ReadReq_miss_latency::cpu1.data    144928247                       # number of ReadReq miss cycles
system.l2c.ReadReq_miss_latency::total    19081681477                       # number of ReadReq miss cycles
system.l2c.UpgradeReq_miss_latency::cpu0.data       842965                       # number of UpgradeReq miss cycles
system.l2c.UpgradeReq_miss_latency::cpu1.data      1256946                       # number of UpgradeReq miss cycles
system.l2c.UpgradeReq_miss_latency::total      2099911                       # number of UpgradeReq miss cycles
system.l2c.SCUpgradeReq_miss_latency::cpu0.data       221993                       # number of SCUpgradeReq miss cycles
system.l2c.SCUpgradeReq_miss_latency::cpu1.data       116495                       # number of SCUpgradeReq miss cycles
system.l2c.SCUpgradeReq_miss_latency::total       338488                       # number of SCUpgradeReq miss cycles
system.l2c.ReadExReq_miss_latency::cpu0.data   8947158383                       # number of ReadExReq miss cycles
system.l2c.ReadExReq_miss_latency::cpu1.data   1452475204                       # number of ReadExReq miss cycles
system.l2c.ReadExReq_miss_latency::total  10399633587                       # number of ReadExReq miss cycles
system.l2c.demand_miss_latency::cpu0.inst    929054999                       # number of demand (read+write) miss cycles
system.l2c.demand_miss_latency::cpu0.data  26640619633                       # number of demand (read+write) miss cycles
system.l2c.demand_miss_latency::cpu1.inst    314236981                       # number of demand (read+write) miss cycles
system.l2c.demand_miss_latency::cpu1.data   1597403451                       # number of demand (read+write) miss cycles
system.l2c.demand_miss_latency::total     29481315064                       # number of demand (read+write) miss cycles
system.l2c.overall_miss_latency::cpu0.inst    929054999                       # number of overall miss cycles
system.l2c.overall_miss_latency::cpu0.data  26640619633                       # number of overall miss cycles
system.l2c.overall_miss_latency::cpu1.inst    314236981                       # number of overall miss cycles
system.l2c.overall_miss_latency::cpu1.data   1597403451                       # number of overall miss cycles
system.l2c.overall_miss_latency::total    29481315064                       # number of overall miss cycles
system.l2c.ReadReq_accesses::cpu0.inst         766133                       # number of ReadReq accesses(hits+misses)
system.l2c.ReadReq_accesses::cpu0.data         844445                       # number of ReadReq accesses(hits+misses)
system.l2c.ReadReq_accesses::cpu1.inst         317263                       # number of ReadReq accesses(hits+misses)
system.l2c.ReadReq_accesses::cpu1.data         251444                       # number of ReadReq accesses(hits+misses)
system.l2c.ReadReq_accesses::total            2179285                       # number of ReadReq accesses(hits+misses)
system.l2c.Writeback_accesses::writebacks       840492                       # number of Writeback accesses(hits+misses)
system.l2c.Writeback_accesses::total           840492                       # number of Writeback accesses(hits+misses)
system.l2c.UpgradeReq_accesses::cpu0.data         2695                       # number of UpgradeReq accesses(hits+misses)
system.l2c.UpgradeReq_accesses::cpu1.data          661                       # number of UpgradeReq accesses(hits+misses)
system.l2c.UpgradeReq_accesses::total            3356                       # number of UpgradeReq accesses(hits+misses)
system.l2c.SCUpgradeReq_accesses::cpu0.data           95                       # number of SCUpgradeReq accesses(hits+misses)
system.l2c.SCUpgradeReq_accesses::cpu1.data          140                       # number of SCUpgradeReq accesses(hits+misses)
system.l2c.SCUpgradeReq_accesses::total           235                       # number of SCUpgradeReq accesses(hits+misses)
system.l2c.ReadExReq_accesses::cpu0.data       252814                       # number of ReadExReq accesses(hits+misses)
system.l2c.ReadExReq_accesses::cpu1.data        58418                       # number of ReadExReq accesses(hits+misses)
system.l2c.ReadExReq_accesses::total           311232                       # number of ReadExReq accesses(hits+misses)
system.l2c.demand_accesses::cpu0.inst          766133                       # number of demand (read+write) accesses
system.l2c.demand_accesses::cpu0.data         1097259                       # number of demand (read+write) accesses
system.l2c.demand_accesses::cpu1.inst          317263                       # number of demand (read+write) accesses
system.l2c.demand_accesses::cpu1.data          309862                       # number of demand (read+write) accesses
system.l2c.demand_accesses::total             2490517                       # number of demand (read+write) accesses
system.l2c.overall_accesses::cpu0.inst         766133                       # number of overall (read+write) accesses
system.l2c.overall_accesses::cpu0.data        1097259                       # number of overall (read+write) accesses
system.l2c.overall_accesses::cpu1.inst         317263                       # number of overall (read+write) accesses
system.l2c.overall_accesses::cpu1.data         309862                       # number of overall (read+write) accesses
system.l2c.overall_accesses::total            2490517                       # number of overall (read+write) accesses
system.l2c.ReadReq_miss_rate::cpu0.inst      0.015123                       # miss rate for ReadReq accesses
system.l2c.ReadReq_miss_rate::cpu0.data      0.322175                       # miss rate for ReadReq accesses
system.l2c.ReadReq_miss_rate::cpu1.inst      0.011681                       # miss rate for ReadReq accesses
system.l2c.ReadReq_miss_rate::cpu1.data      0.007059                       # miss rate for ReadReq accesses
system.l2c.ReadReq_miss_rate::total          0.132670                       # miss rate for ReadReq accesses
system.l2c.UpgradeReq_miss_rate::cpu0.data     0.951763                       # miss rate for UpgradeReq accesses
system.l2c.UpgradeReq_miss_rate::cpu1.data     0.888048                       # miss rate for UpgradeReq accesses
system.l2c.UpgradeReq_miss_rate::total       0.939213                       # miss rate for UpgradeReq accesses
system.l2c.SCUpgradeReq_miss_rate::cpu0.data     0.610526                       # miss rate for SCUpgradeReq accesses
system.l2c.SCUpgradeReq_miss_rate::cpu1.data     0.764286                       # miss rate for SCUpgradeReq accesses
system.l2c.SCUpgradeReq_miss_rate::total     0.702128                       # miss rate for SCUpgradeReq accesses
system.l2c.ReadExReq_miss_rate::cpu0.data     0.430123                       # miss rate for ReadExReq accesses
system.l2c.ReadExReq_miss_rate::cpu1.data     0.241159                       # miss rate for ReadExReq accesses
system.l2c.ReadExReq_miss_rate::total        0.394654                       # miss rate for ReadExReq accesses
system.l2c.demand_miss_rate::cpu0.inst       0.015123                       # miss rate for demand accesses
system.l2c.demand_miss_rate::cpu0.data       0.347047                       # miss rate for demand accesses
system.l2c.demand_miss_rate::cpu1.inst       0.011681                       # miss rate for demand accesses
system.l2c.demand_miss_rate::cpu1.data       0.051194                       # miss rate for demand accesses
system.l2c.demand_miss_rate::total           0.165409                       # miss rate for demand accesses
system.l2c.overall_miss_rate::cpu0.inst      0.015123                       # miss rate for overall accesses
system.l2c.overall_miss_rate::cpu0.data      0.347047                       # miss rate for overall accesses
system.l2c.overall_miss_rate::cpu1.inst      0.011681                       # miss rate for overall accesses
system.l2c.overall_miss_rate::cpu1.data      0.051194                       # miss rate for overall accesses
system.l2c.overall_miss_rate::total          0.165409                       # miss rate for overall accesses
system.l2c.ReadReq_avg_miss_latency::cpu0.inst 80187.726480                       # average ReadReq miss latency
system.l2c.ReadReq_avg_miss_latency::cpu0.data 65035.382950                       # average ReadReq miss latency
system.l2c.ReadReq_avg_miss_latency::cpu1.inst 84791.414193                       # average ReadReq miss latency
system.l2c.ReadReq_avg_miss_latency::cpu1.data 81649.716620                       # average ReadReq miss latency
system.l2c.ReadReq_avg_miss_latency::total 65997.805376                       # average ReadReq miss latency
system.l2c.UpgradeReq_avg_miss_latency::cpu0.data   328.641326                       # average UpgradeReq miss latency
system.l2c.UpgradeReq_avg_miss_latency::cpu1.data  2141.304940                       # average UpgradeReq miss latency
system.l2c.UpgradeReq_avg_miss_latency::total   666.215419                       # average UpgradeReq miss latency
system.l2c.SCUpgradeReq_avg_miss_latency::cpu0.data  3827.465517                       # average SCUpgradeReq miss latency
system.l2c.SCUpgradeReq_avg_miss_latency::cpu1.data  1088.738318                       # average SCUpgradeReq miss latency
system.l2c.SCUpgradeReq_avg_miss_latency::total  2051.442424                       # average SCUpgradeReq miss latency
system.l2c.ReadExReq_avg_miss_latency::cpu0.data 82279.530104                       # average ReadExReq miss latency
system.l2c.ReadExReq_avg_miss_latency::cpu1.data 103100.170642                       # average ReadExReq miss latency
system.l2c.ReadExReq_avg_miss_latency::total 84667.575141                       # average ReadExReq miss latency
system.l2c.demand_avg_miss_latency::cpu0.inst 80187.726480                       # average overall miss latency
system.l2c.demand_avg_miss_latency::cpu0.data 69959.610381                       # average overall miss latency
system.l2c.demand_avg_miss_latency::cpu1.inst 84791.414193                       # average overall miss latency
system.l2c.demand_avg_miss_latency::cpu1.data 100699.959087                       # average overall miss latency
system.l2c.demand_avg_miss_latency::total 71564.406462                       # average overall miss latency
system.l2c.overall_avg_miss_latency::cpu0.inst 80187.726480                       # average overall miss latency
system.l2c.overall_avg_miss_latency::cpu0.data 69959.610381                       # average overall miss latency
system.l2c.overall_avg_miss_latency::cpu1.inst 84791.414193                       # average overall miss latency
system.l2c.overall_avg_miss_latency::cpu1.data 100699.959087                       # average overall miss latency
system.l2c.overall_avg_miss_latency::total 71564.406462                       # average overall miss latency
system.l2c.blocked_cycles::no_mshrs                 0                       # number of cycles access was blocked
system.l2c.blocked_cycles::no_targets               0                       # number of cycles access was blocked
system.l2c.blocked::no_mshrs                        0                       # number of cycles access was blocked
system.l2c.blocked::no_targets                      0                       # number of cycles access was blocked
system.l2c.avg_blocked_cycles::no_mshrs           nan                       # average number of cycles each access was blocked
system.l2c.avg_blocked_cycles::no_targets          nan                       # average number of cycles each access was blocked
system.l2c.fast_writes                              0                       # number of fast writes performed
system.l2c.cache_copies                             0                       # number of cache copies performed
system.l2c.writebacks::writebacks               82291                       # number of writebacks
system.l2c.writebacks::total                    82291                       # number of writebacks
system.l2c.ReadReq_mshr_hits::cpu0.inst             7                       # number of ReadReq MSHR hits
system.l2c.ReadReq_mshr_hits::cpu0.data             1                       # number of ReadReq MSHR hits
system.l2c.ReadReq_mshr_hits::cpu1.inst            10                       # number of ReadReq MSHR hits
system.l2c.ReadReq_mshr_hits::total                18                       # number of ReadReq MSHR hits
system.l2c.demand_mshr_hits::cpu0.inst              7                       # number of demand (read+write) MSHR hits
system.l2c.demand_mshr_hits::cpu0.data              1                       # number of demand (read+write) MSHR hits
system.l2c.demand_mshr_hits::cpu1.inst             10                       # number of demand (read+write) MSHR hits
system.l2c.demand_mshr_hits::total                 18                       # number of demand (read+write) MSHR hits
system.l2c.overall_mshr_hits::cpu0.inst             7                       # number of overall MSHR hits
system.l2c.overall_mshr_hits::cpu0.data             1                       # number of overall MSHR hits
system.l2c.overall_mshr_hits::cpu1.inst            10                       # number of overall MSHR hits
system.l2c.overall_mshr_hits::total                18                       # number of overall MSHR hits
system.l2c.ReadReq_mshr_misses::cpu0.inst        11579                       # number of ReadReq MSHR misses
system.l2c.ReadReq_mshr_misses::cpu0.data       272058                       # number of ReadReq MSHR misses
system.l2c.ReadReq_mshr_misses::cpu1.inst         3696                       # number of ReadReq MSHR misses
system.l2c.ReadReq_mshr_misses::cpu1.data         1775                       # number of ReadReq MSHR misses
system.l2c.ReadReq_mshr_misses::total          289108                       # number of ReadReq MSHR misses
system.l2c.UpgradeReq_mshr_misses::cpu0.data         2565                       # number of UpgradeReq MSHR misses
system.l2c.UpgradeReq_mshr_misses::cpu1.data          587                       # number of UpgradeReq MSHR misses
system.l2c.UpgradeReq_mshr_misses::total         3152                       # number of UpgradeReq MSHR misses
system.l2c.SCUpgradeReq_mshr_misses::cpu0.data           58                       # number of SCUpgradeReq MSHR misses
system.l2c.SCUpgradeReq_mshr_misses::cpu1.data          107                       # number of SCUpgradeReq MSHR misses
system.l2c.SCUpgradeReq_mshr_misses::total          165                       # number of SCUpgradeReq MSHR misses
system.l2c.ReadExReq_mshr_misses::cpu0.data       108741                       # number of ReadExReq MSHR misses
system.l2c.ReadExReq_mshr_misses::cpu1.data        14088                       # number of ReadExReq MSHR misses
system.l2c.ReadExReq_mshr_misses::total        122829                       # number of ReadExReq MSHR misses
system.l2c.demand_mshr_misses::cpu0.inst        11579                       # number of demand (read+write) MSHR misses
system.l2c.demand_mshr_misses::cpu0.data       380799                       # number of demand (read+write) MSHR misses
system.l2c.demand_mshr_misses::cpu1.inst         3696                       # number of demand (read+write) MSHR misses
system.l2c.demand_mshr_misses::cpu1.data        15863                       # number of demand (read+write) MSHR misses
system.l2c.demand_mshr_misses::total           411937                       # number of demand (read+write) MSHR misses
system.l2c.overall_mshr_misses::cpu0.inst        11579                       # number of overall MSHR misses
system.l2c.overall_mshr_misses::cpu0.data       380799                       # number of overall MSHR misses
system.l2c.overall_mshr_misses::cpu1.inst         3696                       # number of overall MSHR misses
system.l2c.overall_mshr_misses::cpu1.data        15863                       # number of overall MSHR misses
system.l2c.overall_mshr_misses::total          411937                       # number of overall MSHR misses
system.l2c.ReadReq_mshr_miss_latency::cpu0.inst    782519751                       # number of ReadReq MSHR miss cycles
system.l2c.ReadReq_mshr_miss_latency::cpu0.data  14298950750                       # number of ReadReq MSHR miss cycles
system.l2c.ReadReq_mshr_miss_latency::cpu1.inst    266998019                       # number of ReadReq MSHR miss cycles
system.l2c.ReadReq_mshr_miss_latency::cpu1.data    147305751                       # number of ReadReq MSHR miss cycles
system.l2c.ReadReq_mshr_miss_latency::total  15495774271                       # number of ReadReq MSHR miss cycles
system.l2c.UpgradeReq_mshr_miss_latency::cpu0.data     25723531                       # number of UpgradeReq MSHR miss cycles
system.l2c.UpgradeReq_mshr_miss_latency::cpu1.data      5884082                       # number of UpgradeReq MSHR miss cycles
system.l2c.UpgradeReq_mshr_miss_latency::total     31607613                       # number of UpgradeReq MSHR miss cycles
system.l2c.SCUpgradeReq_mshr_miss_latency::cpu0.data       641556                       # number of SCUpgradeReq MSHR miss cycles
system.l2c.SCUpgradeReq_mshr_miss_latency::cpu1.data      1072106                       # number of SCUpgradeReq MSHR miss cycles
system.l2c.SCUpgradeReq_mshr_miss_latency::total      1713662                       # number of SCUpgradeReq MSHR miss cycles
system.l2c.ReadExReq_mshr_miss_latency::cpu0.data   7614105115                       # number of ReadExReq MSHR miss cycles
system.l2c.ReadExReq_mshr_miss_latency::cpu1.data   1279019296                       # number of ReadExReq MSHR miss cycles
system.l2c.ReadExReq_mshr_miss_latency::total   8893124411                       # number of ReadExReq MSHR miss cycles
system.l2c.demand_mshr_miss_latency::cpu0.inst    782519751                       # number of demand (read+write) MSHR miss cycles
system.l2c.demand_mshr_miss_latency::cpu0.data  21913055865                       # number of demand (read+write) MSHR miss cycles
system.l2c.demand_mshr_miss_latency::cpu1.inst    266998019                       # number of demand (read+write) MSHR miss cycles
system.l2c.demand_mshr_miss_latency::cpu1.data   1426325047                       # number of demand (read+write) MSHR miss cycles
system.l2c.demand_mshr_miss_latency::total  24388898682                       # number of demand (read+write) MSHR miss cycles
system.l2c.overall_mshr_miss_latency::cpu0.inst    782519751                       # number of overall MSHR miss cycles
system.l2c.overall_mshr_miss_latency::cpu0.data  21913055865                       # number of overall MSHR miss cycles
system.l2c.overall_mshr_miss_latency::cpu1.inst    266998019                       # number of overall MSHR miss cycles
system.l2c.overall_mshr_miss_latency::cpu1.data   1426325047                       # number of overall MSHR miss cycles
system.l2c.overall_mshr_miss_latency::total  24388898682                       # number of overall MSHR miss cycles
system.l2c.ReadReq_mshr_uncacheable_latency::cpu0.data    931434500                       # number of ReadReq MSHR uncacheable cycles
system.l2c.ReadReq_mshr_uncacheable_latency::cpu1.data    458421000                       # number of ReadReq MSHR uncacheable cycles
system.l2c.ReadReq_mshr_uncacheable_latency::total   1389855500                       # number of ReadReq MSHR uncacheable cycles
system.l2c.WriteReq_mshr_uncacheable_latency::cpu0.data   1577498000                       # number of WriteReq MSHR uncacheable cycles
system.l2c.WriteReq_mshr_uncacheable_latency::cpu1.data    884169000                       # number of WriteReq MSHR uncacheable cycles
system.l2c.WriteReq_mshr_uncacheable_latency::total   2461667000                       # number of WriteReq MSHR uncacheable cycles
system.l2c.overall_mshr_uncacheable_latency::cpu0.data   2508932500                       # number of overall MSHR uncacheable cycles
system.l2c.overall_mshr_uncacheable_latency::cpu1.data   1342590000                       # number of overall MSHR uncacheable cycles
system.l2c.overall_mshr_uncacheable_latency::total   3851522500                       # number of overall MSHR uncacheable cycles
system.l2c.ReadReq_mshr_miss_rate::cpu0.inst     0.015114                       # mshr miss rate for ReadReq accesses
system.l2c.ReadReq_mshr_miss_rate::cpu0.data     0.322174                       # mshr miss rate for ReadReq accesses
system.l2c.ReadReq_mshr_miss_rate::cpu1.inst     0.011650                       # mshr miss rate for ReadReq accesses
system.l2c.ReadReq_mshr_miss_rate::cpu1.data     0.007059                       # mshr miss rate for ReadReq accesses
system.l2c.ReadReq_mshr_miss_rate::total     0.132662                       # mshr miss rate for ReadReq accesses
system.l2c.UpgradeReq_mshr_miss_rate::cpu0.data     0.951763                       # mshr miss rate for UpgradeReq accesses
system.l2c.UpgradeReq_mshr_miss_rate::cpu1.data     0.888048                       # mshr miss rate for UpgradeReq accesses
system.l2c.UpgradeReq_mshr_miss_rate::total     0.939213                       # mshr miss rate for UpgradeReq accesses
system.l2c.SCUpgradeReq_mshr_miss_rate::cpu0.data     0.610526                       # mshr miss rate for SCUpgradeReq accesses
system.l2c.SCUpgradeReq_mshr_miss_rate::cpu1.data     0.764286                       # mshr miss rate for SCUpgradeReq accesses
system.l2c.SCUpgradeReq_mshr_miss_rate::total     0.702128                       # mshr miss rate for SCUpgradeReq accesses
system.l2c.ReadExReq_mshr_miss_rate::cpu0.data     0.430123                       # mshr miss rate for ReadExReq accesses
system.l2c.ReadExReq_mshr_miss_rate::cpu1.data     0.241159                       # mshr miss rate for ReadExReq accesses
[...]
system.cpu1.dcache.WriteReq_avg_mshr_miss_latency::total 33713.570367                       # average WriteReq mshr miss latency
system.cpu1.dcache.LoadLockedReq_avg_mshr_miss_latency::cpu1.data 11163.708875                       # average LoadLockedReq mshr miss latency
system.cpu1.dcache.LoadLockedReq_avg_mshr_miss_latency::total 11163.708875                       # average LoadLockedReq mshr miss latency
system.cpu1.dcache.StoreCondReq_avg_mshr_miss_latency::cpu1.data  5344.934699                       # average StoreCondReq mshr miss latency
system.cpu1.dcache.StoreCondReq_avg_mshr_miss_latency::total  5344.934699                       # average StoreCondReq mshr miss latency
system.cpu1.dcache.demand_avg_mshr_miss_latency::cpu1.data 16693.814493                       # average overall mshr miss latency
system.cpu1.dcache.demand_avg_mshr_miss_latency::total 16693.814493                       # average overall mshr miss latency
system.cpu1.dcache.overall_avg_mshr_miss_latency::cpu1.data 16693.814493                       # average overall mshr miss latency
system.cpu1.dcache.overall_avg_mshr_miss_latency::total 16693.814493                       # average overall mshr miss latency
system.cpu1.dcache.ReadReq_avg_mshr_uncacheable_latency::cpu1.data          inf                       # average ReadReq mshr uncacheable latency
system.cpu1.dcache.ReadReq_avg_mshr_uncacheable_latency::total          inf                       # average ReadReq mshr uncacheable latency
system.cpu1.dcache.WriteReq_avg_mshr_uncacheable_latency::cpu1.data          inf                       # average WriteReq mshr uncacheable latency
system.cpu1.dcache.WriteReq_avg_mshr_uncacheable_latency::total          inf                       # average WriteReq mshr uncacheable latency
system.cpu1.dcache.overall_avg_mshr_uncacheable_latency::cpu1.data          inf                       # average overall mshr uncacheable latency
system.cpu1.dcache.overall_avg_mshr_uncacheable_latency::total          inf                       # average overall mshr uncacheable latency
system.cpu1.dcache.no_allocate_misses               0                       # Number of misses that were no-allocate
system.cpu0.kern.inst.arm                           0                       # number of arm instructions executed
system.cpu0.kern.inst.quiesce                    4836                       # number of quiesce instructions executed
system.cpu0.kern.inst.hwrei                    166329                       # number of hwrei instructions executed
system.cpu0.kern.ipl_count::0                   57049     39.81%     39.81% # number of times we switched to this ipl
system.cpu0.kern.ipl_count::21                    131      0.09%     39.90% # number of times we switched to this ipl
system.cpu0.kern.ipl_count::22                   1924      1.34%     41.24% # number of times we switched to this ipl
system.cpu0.kern.ipl_count::30                     16      0.01%     41.25% # number of times we switched to this ipl
system.cpu0.kern.ipl_count::31                  84196     58.75%    100.00% # number of times we switched to this ipl
system.cpu0.kern.ipl_count::total              143316                       # number of times we switched to this ipl
system.cpu0.kern.ipl_good::0                    56102     49.10%     49.10% # number of times we switched to this ipl from a different ipl
system.cpu0.kern.ipl_good::21                     131      0.11%     49.22% # number of times we switched to this ipl from a different ipl
system.cpu0.kern.ipl_good::22                    1924      1.68%     50.90% # number of times we switched to this ipl from a different ipl
system.cpu0.kern.ipl_good::30                      16      0.01%     50.91% # number of times we switched to this ipl from a different ipl
system.cpu0.kern.ipl_good::31                   56086     49.09%    100.00% # number of times we switched to this ipl from a different ipl
system.cpu0.kern.ipl_good::total               114259                       # number of times we switched to this ipl from a different ipl
system.cpu0.kern.ipl_ticks::0            1865433154000     98.01%     98.01% # number of cycles we spent at this ipl
system.cpu0.kern.ipl_ticks::21               62620000      0.00%     98.01% # number of cycles we spent at this ipl
system.cpu0.kern.ipl_ticks::22              558222500      0.03%     98.04% # number of cycles we spent at this ipl
system.cpu0.kern.ipl_ticks::30                8649500      0.00%     98.04% # number of cycles we spent at this ipl
system.cpu0.kern.ipl_ticks::31            37274722500      1.96%    100.00% # number of cycles we spent at this ipl
system.cpu0.kern.ipl_ticks::total        1903337368500                       # number of cycles we spent at this ipl
system.cpu0.kern.ipl_used::0                 0.983400                       # fraction of swpipl calls that actually changed the ipl
system.cpu0.kern.ipl_used::21                       1                       # fraction of swpipl calls that actually changed the ipl
system.cpu0.kern.ipl_used::22                       1                       # fraction of swpipl calls that actually changed the ipl
system.cpu0.kern.ipl_used::30                       1                       # fraction of swpipl calls that actually changed the ipl
system.cpu0.kern.ipl_used::31                0.666136                       # fraction of swpipl calls that actually changed the ipl
system.cpu0.kern.ipl_used::total             0.797252                       # fraction of swpipl calls that actually changed the ipl
system.cpu0.kern.syscall::2                         8      3.56%      3.56% # number of syscalls executed
system.cpu0.kern.syscall::3                        19      8.44%     12.00% # number of syscalls executed
system.cpu0.kern.syscall::4                         4      1.78%     13.78% # number of syscalls executed
system.cpu0.kern.syscall::6                        33     14.67%     28.44% # number of syscalls executed
system.cpu0.kern.syscall::12                        1      0.44%     28.89% # number of syscalls executed
system.cpu0.kern.syscall::17                        9      4.00%     32.89% # number of syscalls executed
system.cpu0.kern.syscall::19                       10      4.44%     37.33% # number of syscalls executed
system.cpu0.kern.syscall::20                        6      2.67%     40.00% # number of syscalls executed
system.cpu0.kern.syscall::23                        1      0.44%     40.44% # number of syscalls executed
system.cpu0.kern.syscall::24                        3      1.33%     41.78% # number of syscalls executed
system.cpu0.kern.syscall::33                        7      3.11%     44.89% # number of syscalls executed
system.cpu0.kern.syscall::41                        2      0.89%     45.78% # number of syscalls executed
system.cpu0.kern.syscall::45                       36     16.00%     61.78% # number of syscalls executed
system.cpu0.kern.syscall::47                        3      1.33%     63.11% # number of syscalls executed
system.cpu0.kern.syscall::48                       10      4.44%     67.56% # number of syscalls executed
system.cpu0.kern.syscall::54                       10      4.44%     72.00% # number of syscalls executed
system.cpu0.kern.syscall::58                        1      0.44%     72.44% # number of syscalls executed
system.cpu0.kern.syscall::59                        6      2.67%     75.11% # number of syscalls executed
system.cpu0.kern.syscall::71                       25     11.11%     86.22% # number of syscalls executed
system.cpu0.kern.syscall::73                        3      1.33%     87.56% # number of syscalls executed
system.cpu0.kern.syscall::74                        6      2.67%     90.22% # number of syscalls executed
system.cpu0.kern.syscall::87                        1      0.44%     90.67% # number of syscalls executed
system.cpu0.kern.syscall::90                        3      1.33%     92.00% # number of syscalls executed
system.cpu0.kern.syscall::92                        9      4.00%     96.00% # number of syscalls executed
system.cpu0.kern.syscall::97                        2      0.89%     96.89% # number of syscalls executed
system.cpu0.kern.syscall::98                        2      0.89%     97.78% # number of syscalls executed
system.cpu0.kern.syscall::132                       1      0.44%     98.22% # number of syscalls executed
system.cpu0.kern.syscall::144                       2      0.89%     99.11% # number of syscalls executed
system.cpu0.kern.syscall::147                       2      0.89%    100.00% # number of syscalls executed
system.cpu0.kern.syscall::total                   225                       # number of syscalls executed
system.cpu0.kern.callpal::cserve                    1      0.00%      0.00% # number of callpals executed
system.cpu0.kern.callpal::wripir                  104      0.07%      0.07% # number of callpals executed
system.cpu0.kern.callpal::wrmces                    1      0.00%      0.07% # number of callpals executed
system.cpu0.kern.callpal::wrfen                     1      0.00%      0.07% # number of callpals executed
system.cpu0.kern.callpal::wrvptptr                  1      0.00%      0.07% # number of callpals executed
system.cpu0.kern.callpal::swpctx                 3010      1.99%      2.06% # number of callpals executed
system.cpu0.kern.callpal::tbi                      50      0.03%      2.09% # number of callpals executed
system.cpu0.kern.callpal::wrent                     7      0.00%      2.10% # number of callpals executed
system.cpu0.kern.callpal::swpipl               136886     90.50%     92.60% # number of callpals executed
system.cpu0.kern.callpal::rdps                   6293      4.16%     96.76% # number of callpals executed
system.cpu0.kern.callpal::wrkgp                     1      0.00%     96.77% # number of callpals executed
system.cpu0.kern.callpal::wrusp                     3      0.00%     96.77% # number of callpals executed
system.cpu0.kern.callpal::rdusp                     9      0.01%     96.77% # number of callpals executed
system.cpu0.kern.callpal::whami                     2      0.00%     96.77% # number of callpals executed
system.cpu0.kern.callpal::rti                    4358      2.88%     99.66% # number of callpals executed
system.cpu0.kern.callpal::callsys                 382      0.25%     99.91% # number of callpals executed
system.cpu0.kern.callpal::imb                     138      0.09%    100.00% # number of callpals executed
system.cpu0.kern.callpal::total                151247                       # number of callpals executed
system.cpu0.kern.mode_switch::kernel             6436                       # number of protection mode switches
system.cpu0.kern.mode_switch::user               1343                       # number of protection mode switches
system.cpu0.kern.mode_switch::idle                  0                       # number of protection mode switches
system.cpu0.kern.mode_good::kernel               1342                      
system.cpu0.kern.mode_good::user                 1343                      
system.cpu0.kern.mode_good::idle                    0                      
system.cpu0.kern.mode_switch_good::kernel     0.208515                       # fraction of useful protection mode switches
system.cpu0.kern.mode_switch_good::user             1                       # fraction of useful protection mode switches
system.cpu0.kern.mode_switch_good::idle           nan                       # fraction of useful protection mode switches
system.cpu0.kern.mode_switch_good::total     0.345160                       # fraction of useful protection mode switches
system.cpu0.kern.mode_ticks::kernel      1901289587500     99.89%     99.89% # number of ticks spent at the given mode
system.cpu0.kern.mode_ticks::user          2047773000      0.11%    100.00% # number of ticks spent at the given mode
system.cpu0.kern.mode_ticks::idle                   0      0.00%    100.00% # number of ticks spent at the given mode
system.cpu0.kern.swap_context                    3011                       # number of times the context was actually changed
system.cpu1.kern.inst.arm                           0                       # number of arm instructions executed
system.cpu1.kern.inst.quiesce                    3850                       # number of quiesce instructions executed
system.cpu1.kern.inst.hwrei                     71149                       # number of hwrei instructions executed
system.cpu1.kern.ipl_count::0                   24567     38.92%     38.92% # number of times we switched to this ipl
system.cpu1.kern.ipl_count::22                   1923      3.05%     41.97% # number of times we switched to this ipl
system.cpu1.kern.ipl_count::30                    104      0.16%     42.13% # number of times we switched to this ipl
system.cpu1.kern.ipl_count::31                  36529     57.87%    100.00% # number of times we switched to this ipl
system.cpu1.kern.ipl_count::total               63123                       # number of times we switched to this ipl
system.cpu1.kern.ipl_good::0                    24137     48.08%     48.08% # number of times we switched to this ipl from a different ipl
system.cpu1.kern.ipl_good::22                    1923      3.83%     51.92% # number of times we switched to this ipl from a different ipl
system.cpu1.kern.ipl_good::30                     104      0.21%     52.12% # number of times we switched to this ipl from a different ipl
system.cpu1.kern.ipl_good::31                   24033     47.88%    100.00% # number of times we switched to this ipl from a different ipl
system.cpu1.kern.ipl_good::total                50197                       # number of times we switched to this ipl from a different ipl
system.cpu1.kern.ipl_ticks::0            1869107624500     98.20%     98.20% # number of cycles we spent at this ipl
system.cpu1.kern.ipl_ticks::22              533184500      0.03%     98.23% # number of cycles we spent at this ipl
system.cpu1.kern.ipl_ticks::30               48972500      0.00%     98.23% # number of cycles we spent at this ipl
system.cpu1.kern.ipl_ticks::31            33633158500      1.77%    100.00% # number of cycles we spent at this ipl
system.cpu1.kern.ipl_ticks::total        1903322940000                       # number of cycles we spent at this ipl
system.cpu1.kern.ipl_used::0                 0.982497                       # fraction of swpipl calls that actually changed the ipl
system.cpu1.kern.ipl_used::22                       1                       # fraction of swpipl calls that actually changed the ipl
system.cpu1.kern.ipl_used::30                       1                       # fraction of swpipl calls that actually changed the ipl
system.cpu1.kern.ipl_used::31                0.657916                       # fraction of swpipl calls that actually changed the ipl
system.cpu1.kern.ipl_used::total             0.795225                       # fraction of swpipl calls that actually changed the ipl
system.cpu1.kern.syscall::3                        11     10.89%     10.89% # number of syscalls executed
system.cpu1.kern.syscall::6                         9      8.91%     19.80% # number of syscalls executed
system.cpu1.kern.syscall::15                        1      0.99%     20.79% # number of syscalls executed
system.cpu1.kern.syscall::17                        6      5.94%     26.73% # number of syscalls executed
system.cpu1.kern.syscall::23                        3      2.97%     29.70% # number of syscalls executed
system.cpu1.kern.syscall::24                        3      2.97%     32.67% # number of syscalls executed
system.cpu1.kern.syscall::33                        4      3.96%     36.63% # number of syscalls executed
system.cpu1.kern.syscall::45                       18     17.82%     54.46% # number of syscalls executed
system.cpu1.kern.syscall::47                        3      2.97%     57.43% # number of syscalls executed
system.cpu1.kern.syscall::59                        1      0.99%     58.42% # number of syscalls executed
system.cpu1.kern.syscall::71                       29     28.71%     87.13% # number of syscalls executed
system.cpu1.kern.syscall::74                       10      9.90%     97.03% # number of syscalls executed
system.cpu1.kern.syscall::132                       3      2.97%    100.00% # number of syscalls executed
system.cpu1.kern.syscall::total                   101                       # number of syscalls executed
system.cpu1.kern.callpal::cserve                    1      0.00%      0.00% # number of callpals executed
system.cpu1.kern.callpal::wripir                   16      0.02%      0.03% # number of callpals executed
system.cpu1.kern.callpal::wrmces                    1      0.00%      0.03% # number of callpals executed
system.cpu1.kern.callpal::wrfen                     1      0.00%      0.03% # number of callpals executed
system.cpu1.kern.callpal::swpctx                 1228      1.89%      1.92% # number of callpals executed
system.cpu1.kern.callpal::tbi                       3      0.00%      1.92% # number of callpals executed
system.cpu1.kern.callpal::wrent                     7      0.01%      1.93% # number of callpals executed
system.cpu1.kern.callpal::swpipl                58251     89.62%     91.55% # number of callpals executed
system.cpu1.kern.callpal::rdps                   2464      3.79%     95.34% # number of callpals executed
system.cpu1.kern.callpal::wrkgp                     1      0.00%     95.34% # number of callpals executed
system.cpu1.kern.callpal::wrusp                     4      0.01%     95.35% # number of callpals executed
system.cpu1.kern.callpal::whami                     3      0.00%     95.35% # number of callpals executed
system.cpu1.kern.callpal::rti                    2844      4.38%     99.73% # number of callpals executed
system.cpu1.kern.callpal::callsys                 133      0.20%     99.93% # number of callpals executed
system.cpu1.kern.callpal::imb                      42      0.06%    100.00% # number of callpals executed
system.cpu1.kern.callpal::rdunique                  1      0.00%    100.00% # number of callpals executed
system.cpu1.kern.callpal::total                 65000                       # number of callpals executed
system.cpu1.kern.mode_switch::kernel             1608                       # number of protection mode switches
system.cpu1.kern.mode_switch::user                397                       # number of protection mode switches
system.cpu1.kern.mode_switch::idle               2054                       # number of protection mode switches
system.cpu1.kern.mode_good::kernel                463                      
system.cpu1.kern.mode_good::user                  397                      
system.cpu1.kern.mode_good::idle                   66                      
system.cpu1.kern.mode_switch_good::kernel     0.287935                       # fraction of useful protection mode switches
system.cpu1.kern.mode_switch_good::user             1                       # fraction of useful protection mode switches
system.cpu1.kern.mode_switch_good::idle      0.032132                       # fraction of useful protection mode switches
system.cpu1.kern.mode_switch_good::total     0.228135                       # fraction of useful protection mode switches
system.cpu1.kern.mode_ticks::kernel       38501499500      2.02%      2.02% # number of ticks spent at the given mode
system.cpu1.kern.mode_ticks::user           724848000      0.04%      2.06% # number of ticks spent at the given mode
system.cpu1.kern.mode_ticks::idle        1863406690000     97.94%    100.00% # number of ticks spent at the given mode
system.cpu1.kern.swap_context                    1229                       # number of times the context was actually changed

---------- End Simulation Statistics   ----------
