
---------- Begin Simulation Statistics ----------
sim_seconds                                  1.921764                       # Number of seconds simulated
sim_ticks                                1921763645000                       # Number of ticks simulated
final_tick                               1921763645000                       # Number of ticks from beginning of simulation (restored from checkpoints and never reset)
sim_freq                                 1000000000000                       # Frequency of simulated ticks
host_inst_rate                                 133766                       # Simulator instruction rate (inst/s)
host_op_rate                                   133766                       # Simulator op (including micro ops) rate (op/s)
host_tick_rate                             4532754153                       # Simulator tick rate (ticks/s)
host_mem_usage                                 384052                       # Number of bytes of host memory used
host_seconds                                   423.97                       # Real time elapsed on the host
sim_insts                                    56713315                       # Number of instructions simulated
sim_ops                                      56713315                       # Number of ops (including micro ops) simulated
system.voltage_domain.voltage                       1                       # Voltage in Volts
system.clk_domain.clock                          1000                       # Clock period in ticks
system.physmem.bytes_read::cpu0.inst           874240                       # Number of bytes read from this memory
system.physmem.bytes_read::cpu0.data         24774144                       # Number of bytes read from this memory
system.physmem.bytes_read::cpu1.inst           103040                       # Number of bytes read from this memory
system.physmem.bytes_read::cpu1.data           514944                       # Number of bytes read from this memory
system.physmem.bytes_read::tsunami.ide            960                       # Number of bytes read from this memory
system.physmem.bytes_read::total             26267328                       # Number of bytes read from this memory
system.physmem.bytes_inst_read::cpu0.inst       874240                       # Number of instructions bytes read from this memory
system.physmem.bytes_inst_read::cpu1.inst       103040                       # Number of instructions bytes read from this memory
system.physmem.bytes_inst_read::total          977280                       # Number of instructions bytes read from this memory
system.physmem.bytes_written::writebacks      7875136                       # Number of bytes written to this memory
system.physmem.bytes_written::total           7875136                       # Number of bytes written to this memory
system.physmem.num_reads::cpu0.inst             13660                       # Number of read requests responded to by this memory
system.physmem.num_reads::cpu0.data            387096                       # Number of read requests responded to by this memory
system.physmem.num_reads::cpu1.inst              1610                       # Number of read requests responded to by this memory
system.physmem.num_reads::cpu1.data              8046                       # Number of read requests responded to by this memory
system.physmem.num_reads::tsunami.ide              15                       # Number of read requests responded to by this memory
system.physmem.num_reads::total                410427                       # Number of read requests responded to by this memory
system.physmem.num_writes::writebacks          123049                       # Number of write requests responded to by this memory
system.physmem.num_writes::total               123049                       # Number of write requests responded to by this memory
system.physmem.bw_read::cpu0.inst              454915                       # Total read bandwidth from this memory (bytes/s)
system.physmem.bw_read::cpu0.data            12891358                       # Total read bandwidth from this memory (bytes/s)
system.physmem.bw_read::cpu1.inst               53617                       # Total read bandwidth from this memory (bytes/s)
system.physmem.bw_read::cpu1.data              267954                       # Total read bandwidth from this memory (bytes/s)
system.physmem.bw_read::tsunami.ide               500                       # Total read bandwidth from this memory (bytes/s)
system.physmem.bw_read::total                13668345                       # Total read bandwidth from this memory (bytes/s)
system.physmem.bw_inst_read::cpu0.inst         454915                       # Instruction read bandwidth from this memory (bytes/s)
system.physmem.bw_inst_read::cpu1.inst          53617                       # Instruction read bandwidth from this memory (bytes/s)
system.physmem.bw_inst_read::total             508533                       # Instruction read bandwidth from this memory (bytes/s)
system.physmem.bw_write::writebacks           4097869                       # Write bandwidth from this memory (bytes/s)
system.physmem.bw_write::total                4097869                       # Write bandwidth from this memory (bytes/s)
system.physmem.bw_total::writebacks           4097869                       # Total bandwidth to/from this memory (bytes/s)
system.physmem.bw_total::cpu0.inst             454915                       # Total bandwidth to/from this memory (bytes/s)
system.physmem.bw_total::cpu0.data           12891358                       # Total bandwidth to/from this memory (bytes/s)
system.physmem.bw_total::cpu1.inst              53617                       # Total bandwidth to/from this memory (bytes/s)
system.physmem.bw_total::cpu1.data             267954                       # Total bandwidth to/from this memory (bytes/s)
system.physmem.bw_total::tsunami.ide              500                       # Total bandwidth to/from this memory (bytes/s)
system.physmem.bw_total::total               17766214                       # Total bandwidth to/from this memory (bytes/s)
system.physmem.readReqs                        410427                       # Number of read requests accepted
system.physmem.writeReqs                       123049                       # Number of write requests accepted
system.physmem.readBursts                      410427                       # Number of DRAM read bursts, including those serviced by the write queue
system.physmem.writeBursts                     123049                       # Number of DRAM write bursts, including those merged in the write queue
system.physmem.bytesReadDRAM                 26259904                       # Total number of bytes read from DRAM
system.physmem.bytesReadWrQ                      7424                       # Total number of bytes read from write queue
system.physmem.bytesWritten                   7874176                       # Total number of bytes written to DRAM
system.physmem.bytesReadSys                  26267328                       # Total read bytes from the system interface side
system.physmem.bytesWrittenSys                7875136                       # Total written bytes from the system interface side
system.physmem.servicedByWrQ                      116                       # Number of DRAM read bursts serviced by the write queue
system.physmem.mergedWrBursts                       0                       # Number of DRAM write bursts merged with an existing one
system.physmem.neitherReadNorWriteReqs          46661                       # Number of requests that are neither read nor write
system.physmem.perBankRdBursts::0               25500                       # Per bank write bursts
system.physmem.perBankRdBursts::1               25969                       # Per bank write bursts
system.physmem.perBankRdBursts::2               26011                       # Per bank write bursts
system.physmem.perBankRdBursts::3               25727                       # Per bank write bursts
system.physmem.perBankRdBursts::4               25508                       # Per bank write bursts
system.physmem.perBankRdBursts::5               25811                       # Per bank write bursts
system.physmem.perBankRdBursts::6               25519                       # Per bank write bursts
system.physmem.perBankRdBursts::7               25160                       # Per bank write bursts
system.physmem.perBankRdBursts::8               25451                       # Per bank write bursts
system.physmem.perBankRdBursts::9               25839                       # Per bank write bursts
system.physmem.perBankRdBursts::10              25659                       # Per bank write bursts
system.physmem.perBankRdBursts::11              25030                       # Per bank write bursts
system.physmem.perBankRdBursts::12              26076                       # Per bank write bursts
system.physmem.perBankRdBursts::13              25978                       # Per bank write bursts
system.physmem.perBankRdBursts::14              25473                       # Per bank write bursts
system.physmem.perBankRdBursts::15              25600                       # Per bank write bursts
system.physmem.perBankWrBursts::0                8066                       # Per bank write bursts
system.physmem.perBankWrBursts::1                8046                       # Per bank write bursts
system.physmem.perBankWrBursts::2                8027                       # Per bank write bursts
system.physmem.perBankWrBursts::3                7668                       # Per bank write bursts
system.physmem.perBankWrBursts::4                7376                       # Per bank write bursts
system.physmem.perBankWrBursts::5                7761                       # Per bank write bursts
system.physmem.perBankWrBursts::6                7583                       # Per bank write bursts
system.physmem.perBankWrBursts::7                6991                       # Per bank write bursts
system.physmem.perBankWrBursts::8                7326                       # Per bank write bursts
system.physmem.perBankWrBursts::9                7600                       # Per bank write bursts
system.physmem.perBankWrBursts::10               7532                       # Per bank write bursts
system.physmem.perBankWrBursts::11               7413                       # Per bank write bursts
system.physmem.perBankWrBursts::12               7962                       # Per bank write bursts
system.physmem.perBankWrBursts::13               8267                       # Per bank write bursts
system.physmem.perBankWrBursts::14               7722                       # Per bank write bursts
system.physmem.perBankWrBursts::15               7694                       # Per bank write bursts
system.physmem.numRdRetry                           0                       # Number of times read queue was full causing retry
system.physmem.numWrRetry                          18                       # Number of times write queue was full causing retry
system.physmem.totGap                    1921759329500                       # Total gap between requests
system.physmem.readPktSize::0                       0                       # Read request sizes (log2)
system.physmem.readPktSize::1                       0                       # Read request sizes (log2)
system.physmem.readPktSize::2                       0                       # Read request sizes (log2)
system.physmem.readPktSize::3                       0                       # Read request sizes (log2)
system.physmem.readPktSize::4                       0                       # Read request sizes (log2)
system.physmem.readPktSize::5                       0                       # Read request sizes (log2)
system.physmem.readPktSize::6                  410427                       # Read request sizes (log2)
system.physmem.writePktSize::0                      0                       # Write request sizes (log2)
system.physmem.writePktSize::1                      0                       # Write request sizes (log2)
system.physmem.writePktSize::2                      0                       # Write request sizes (log2)
system.physmem.writePktSize::3                      0                       # Write request sizes (log2)
system.physmem.writePktSize::4                      0                       # Write request sizes (log2)
system.physmem.writePktSize::5                      0                       # Write request sizes (log2)
system.physmem.writePktSize::6                 123049                       # Write request sizes (log2)
system.physmem.rdQLenPdf::0                    317921                       # What read queue length does an incoming req see
system.physmem.rdQLenPdf::1                     38025                       # What read queue length does an incoming req see
system.physmem.rdQLenPdf::2                     29433                       # What read queue length does an incoming req see
system.physmem.rdQLenPdf::3                     24818                       # What read queue length does an incoming req see
system.physmem.rdQLenPdf::4                        92                       # What read queue length does an incoming req see
system.physmem.rdQLenPdf::5                        12                       # What read queue length does an incoming req see
system.physmem.rdQLenPdf::6                         2                       # What read queue length does an incoming req see
system.physmem.rdQLenPdf::7                         1                       # What read queue length does an incoming req see
system.physmem.rdQLenPdf::8                         1                       # What read queue length does an incoming req see
system.physmem.rdQLenPdf::9                         1                       # What read queue length does an incoming req see
system.physmem.rdQLenPdf::10                        1                       # What read queue length does an incoming req see
system.physmem.rdQLenPdf::11                        1                       # What read queue length does an incoming req see
system.physmem.rdQLenPdf::12                        1                       # What read queue length does an incoming req see
system.physmem.rdQLenPdf::13                        1                       # What read queue length does an incoming req see
system.physmem.rdQLenPdf::14                        1                       # What read queue length does an incoming req see
system.physmem.rdQLenPdf::15                        0                       # What read queue length does an incoming req see
system.physmem.rdQLenPdf::16                        0                       # What read queue length does an incoming req see
system.physmem.rdQLenPdf::17                        0                       # What read queue length does an incoming req see
system.physmem.rdQLenPdf::18                        0                       # What read queue length does an incoming req see
system.physmem.rdQLenPdf::19                        0                       # What read queue length does an incoming req see
system.physmem.rdQLenPdf::20                        0                       # What read queue length does an incoming req see
system.physmem.rdQLenPdf::21                        0                       # What read queue length does an incoming req see
system.physmem.rdQLenPdf::22                        0                       # What read queue length does an incoming req see
system.physmem.rdQLenPdf::23                        0                       # What read queue length does an incoming req see
system.physmem.rdQLenPdf::24                        0                       # What read queue length does an incoming req see
system.physmem.rdQLenPdf::25                        0                       # What read queue length does an incoming req see
system.physmem.rdQLenPdf::26                        0                       # What read queue length does an incoming req see
system.physmem.rdQLenPdf::27                        0                       # What read queue length does an incoming req see
system.physmem.rdQLenPdf::28                        0                       # What read queue length does an incoming req see
system.physmem.rdQLenPdf::29                        0                       # What read queue length does an incoming req see
system.physmem.rdQLenPdf::30                        0                       # What read queue length does an incoming req see
system.physmem.rdQLenPdf::31                        0                       # What read queue length does an incoming req see
system.physmem.wrQLenPdf::0                         1                       # What write queue length does an incoming req see
system.physmem.wrQLenPdf::1                         1                       # What write queue length does an incoming req see
system.physmem.wrQLenPdf::2                         1                       # What write queue length does an incoming req see
system.physmem.wrQLenPdf::3                         1                       # What write queue length does an incoming req see
system.physmem.wrQLenPdf::4                         1                       # What write queue length does an incoming req see
system.physmem.wrQLenPdf::5                         1                       # What write queue length does an incoming req see
system.physmem.wrQLenPdf::6                         1                       # What write queue length does an incoming req see
system.physmem.wrQLenPdf::7                         1                       # What write queue length does an incoming req see
system.physmem.wrQLenPdf::8                         1                       # What write queue length does an incoming req see
system.physmem.wrQLenPdf::9                         1                       # What write queue length does an incoming req see
system.physmem.wrQLenPdf::10                        1                       # What write queue length does an incoming req see
system.physmem.wrQLenPdf::11                        1                       # What write queue length does an incoming req see
system.physmem.wrQLenPdf::12                        1                       # What write queue length does an incoming req see
system.physmem.wrQLenPdf::13                        1                       # What write queue length does an incoming req see
system.physmem.wrQLenPdf::14                        1                       # What write queue length does an incoming req see
system.physmem.wrQLenPdf::15                     1667                       # What write queue length does an incoming req see
system.physmem.wrQLenPdf::16                     2006                       # What write queue length does an incoming req see
system.physmem.wrQLenPdf::17                     3511                       # What write queue length does an incoming req see
system.physmem.wrQLenPdf::18                     4488                       # What write queue length does an incoming req see
system.physmem.wrQLenPdf::19                     5809                       # What write queue length does an incoming req see
system.physmem.wrQLenPdf::20                     6814                       # What write queue length does an incoming req see
system.physmem.wrQLenPdf::21                     6385                       # What write queue length does an incoming req see
system.physmem.wrQLenPdf::22                     6758                       # What write queue length does an incoming req see
system.physmem.wrQLenPdf::23                     8174                       # What write queue length does an incoming req see
system.physmem.wrQLenPdf::24                     8527                       # What write queue length does an incoming req see
system.physmem.wrQLenPdf::25                     9653                       # What write queue length does an incoming req see
system.physmem.wrQLenPdf::26                     8822                       # What write queue length does an incoming req see
system.physmem.wrQLenPdf::27                     9133                       # What write queue length does an incoming req see
system.physmem.wrQLenPdf::28                     8229                       # What write queue length does an incoming req see
system.physmem.wrQLenPdf::29                     8839                       # What write queue length does an incoming req see
system.physmem.wrQLenPdf::30                     6881                       # What write queue length does an incoming req see
system.physmem.wrQLenPdf::31                     6896                       # What write queue length does an incoming req see
system.physmem.wrQLenPdf::32                     6046                       # What write queue length does an incoming req see
system.physmem.wrQLenPdf::33                      371                       # What write queue length does an incoming req see
system.physmem.wrQLenPdf::34                      197                       # What write queue length does an incoming req see
system.physmem.wrQLenPdf::35                      250                       # What write queue length does an incoming req see
system.physmem.wrQLenPdf::36                      229                       # What write queue length does an incoming req see
system.physmem.wrQLenPdf::37                      171                       # What write queue length does an incoming req see
system.physmem.wrQLenPdf::38                      175                       # What write queue length does an incoming req see
system.physmem.wrQLenPdf::39                      142                       # What write queue length does an incoming req see
system.physmem.wrQLenPdf::40                      175                       # What write queue length does an incoming req see
system.physmem.wrQLenPdf::41                      231                       # What write queue length does an incoming req see
system.physmem.wrQLenPdf::42                      237                       # What write queue length does an incoming req see
system.physmem.wrQLenPdf::43                      181                       # What write queue length does an incoming req see
system.physmem.wrQLenPdf::44                      119                       # What write queue length does an incoming req see
system.physmem.wrQLenPdf::45                      164                       # What write queue length does an incoming req see
system.physmem.wrQLenPdf::46                      213                       # What write queue length does an incoming req see
system.physmem.wrQLenPdf::47                      119                       # What write queue length does an incoming req see
system.physmem.wrQLenPdf::48                      146                       # What write queue length does an incoming req see
system.physmem.wrQLenPdf::49                      114                       # What write queue length does an incoming req see
system.physmem.wrQLenPdf::50                      106                       # What write queue length does an incoming req see
system.physmem.wrQLenPdf::51                       94                       # What write queue length does an incoming req see
system.physmem.wrQLenPdf::52                       97                       # What write queue length does an incoming req see
system.physmem.wrQLenPdf::53                       95                       # What write queue length does an incoming req see
system.physmem.wrQLenPdf::54                      136                       # What write queue length does an incoming req see
system.physmem.wrQLenPdf::55                       87                       # What write queue length does an incoming req see
system.physmem.wrQLenPdf::56                       96                       # What write queue length does an incoming req see
system.physmem.wrQLenPdf::57                       60                       # What write queue length does an incoming req see
system.physmem.wrQLenPdf::58                       77                       # What write queue length does an incoming req see
system.physmem.wrQLenPdf::59                       88                       # What write queue length does an incoming req see
system.physmem.wrQLenPdf::60                       59                       # What write queue length does an incoming req see
system.physmem.wrQLenPdf::61                       56                       # What write queue length does an incoming req see
system.physmem.wrQLenPdf::62                       39                       # What write queue length does an incoming req see
system.physmem.wrQLenPdf::63                       72                       # What write queue length does an incoming req see
system.physmem.bytesPerActivate::samples        65305                       # Bytes accessed per row activation
system.physmem.bytesPerActivate::mean      522.687084                       # Bytes accessed per row activation
system.physmem.bytesPerActivate::gmean     319.252168                       # Bytes accessed per row activation
system.physmem.bytesPerActivate::stdev     410.914363                       # Bytes accessed per row activation
system.physmem.bytesPerActivate::0-127          14928     22.86%     22.86% # Bytes accessed per row activation
system.physmem.bytesPerActivate::128-255        11344     17.37%     40.23% # Bytes accessed per row activation
system.physmem.bytesPerActivate::256-383         5465      8.37%     48.60% # Bytes accessed per row activation
system.physmem.bytesPerActivate::384-511         2873      4.40%     53.00% # Bytes accessed per row activation
system.physmem.bytesPerActivate::512-639         2572      3.94%     56.94% # Bytes accessed per row activation
system.physmem.bytesPerActivate::640-767         1636      2.51%     59.44% # Bytes accessed per row activation
system.physmem.bytesPerActivate::768-895         3782      5.79%     65.23% # Bytes accessed per row activation
system.physmem.bytesPerActivate::896-1023         1204      1.84%     67.08% # Bytes accessed per row activation
system.physmem.bytesPerActivate::1024-1151        21501     32.92%    100.00% # Bytes accessed per row activation
system.physmem.bytesPerActivate::total          65305                       # Bytes accessed per row activation
system.physmem.rdPerTurnAround::samples          5548                       # Reads before turning the bus around for writes
system.physmem.rdPerTurnAround::mean        73.956561                       # Reads before turning the bus around for writes
system.physmem.rdPerTurnAround::stdev     2834.723442                       # Reads before turning the bus around for writes
system.physmem.rdPerTurnAround::0-8191           5545     99.95%     99.95% # Reads before turning the bus around for writes
system.physmem.rdPerTurnAround::40960-49151            1      0.02%     99.96% # Reads before turning the bus around for writes
system.physmem.rdPerTurnAround::57344-65535            1      0.02%     99.98% # Reads before turning the bus around for writes
system.physmem.rdPerTurnAround::196608-204799            1      0.02%    100.00% # Reads before turning the bus around for writes
system.physmem.rdPerTurnAround::total            5548                       # Reads before turning the bus around for writes
system.physmem.wrPerTurnAround::samples          5548                       # Writes before turning the bus around for reads
system.physmem.wrPerTurnAround::mean        22.176280                       # Writes before turning the bus around for reads
system.physmem.wrPerTurnAround::gmean       18.947134                       # Writes before turning the bus around for reads
system.physmem.wrPerTurnAround::stdev       20.868875                       # Writes before turning the bus around for reads
system.physmem.wrPerTurnAround::16-19            4772     86.01%     86.01% # Writes before turning the bus around for reads
system.physmem.wrPerTurnAround::20-23             155      2.79%     88.81% # Writes before turning the bus around for reads
system.physmem.wrPerTurnAround::24-27              19      0.34%     89.15% # Writes before turning the bus around for reads
system.physmem.wrPerTurnAround::28-31             186      3.35%     92.50% # Writes before turning the bus around for reads
system.physmem.wrPerTurnAround::32-35               8      0.14%     92.65% # Writes before turning the bus around for reads
system.physmem.wrPerTurnAround::36-39              21      0.38%     93.02% # Writes before turning the bus around for reads
system.physmem.wrPerTurnAround::40-43              41      0.74%     93.76% # Writes before turning the bus around for reads
system.physmem.wrPerTurnAround::44-47               5      0.09%     93.85% # Writes before turning the bus around for reads
system.physmem.wrPerTurnAround::48-51              18      0.32%     94.18% # Writes before turning the bus around for reads
system.physmem.wrPerTurnAround::52-55              27      0.49%     94.66% # Writes before turning the bus around for reads
system.physmem.wrPerTurnAround::56-59               1      0.02%     94.68% # Writes before turning the bus around for reads
system.physmem.wrPerTurnAround::60-63               5      0.09%     94.77% # Writes before turning the bus around for reads
system.physmem.wrPerTurnAround::64-67               9      0.16%     94.94% # Writes before turning the bus around for reads
system.physmem.wrPerTurnAround::68-71               4      0.07%     95.01% # Writes before turning the bus around for reads
system.physmem.wrPerTurnAround::72-75              20      0.36%     95.37% # Writes before turning the bus around for reads
system.physmem.wrPerTurnAround::76-79              24      0.43%     95.80% # Writes before turning the bus around for reads
system.physmem.wrPerTurnAround::80-83               2      0.04%     95.84% # Writes before turning the bus around for reads
system.physmem.wrPerTurnAround::84-87              29      0.52%     96.36% # Writes before turning the bus around for reads
system.physmem.wrPerTurnAround::96-99               1      0.02%     96.38% # Writes before turning the bus around for reads
system.physmem.wrPerTurnAround::100-103           158      2.85%     99.22% # Writes before turning the bus around for reads
system.physmem.wrPerTurnAround::108-111             2      0.04%     99.26% # Writes before turning the bus around for reads
system.physmem.wrPerTurnAround::128-131             3      0.05%     99.32% # Writes before turning the bus around for reads
system.physmem.wrPerTurnAround::132-135             1      0.02%     99.33% # Writes before turning the bus around for reads
system.physmem.wrPerTurnAround::140-143             1      0.02%     99.35% # Writes before turning the bus around for reads
system.physmem.wrPerTurnAround::148-151             2      0.04%     99.39% # Writes before turning the bus around for reads
system.physmem.wrPerTurnAround::152-155             1      0.02%     99.41% # Writes before turning the bus around for reads
system.physmem.wrPerTurnAround::156-159             1      0.02%     99.42% # Writes before turning the bus around for reads
system.physmem.wrPerTurnAround::160-163             2      0.04%     99.46% # Writes before turning the bus around for reads
system.physmem.wrPerTurnAround::164-167             4      0.07%     99.53% # Writes before turning the bus around for reads
system.physmem.wrPerTurnAround::168-171             3      0.05%     99.59% # Writes before turning the bus around for reads
system.physmem.wrPerTurnAround::172-175             1      0.02%     99.60% # Writes before turning the bus around for reads
system.physmem.wrPerTurnAround::176-179             3      0.05%     99.66% # Writes before turning the bus around for reads
system.physmem.wrPerTurnAround::180-183            14      0.25%     99.91% # Writes before turning the bus around for reads
system.physmem.wrPerTurnAround::188-191             2      0.04%     99.95% # Writes before turning the bus around for reads
system.physmem.wrPerTurnAround::192-195             1      0.02%     99.96% # Writes before turning the bus around for reads
system.physmem.wrPerTurnAround::208-211             1      0.02%     99.98% # Writes before turning the bus around for reads
system.physmem.wrPerTurnAround::228-231             1      0.02%    100.00% # Writes before turning the bus around for reads
system.physmem.wrPerTurnAround::total            5548                       # Writes before turning the bus around for reads
system.physmem.totQLat                     4465229000                       # Total ticks spent queuing
system.physmem.totMemAccLat               12158560250                       # Total ticks spent from burst creation until serviced by the DRAM
system.physmem.totBusLat                   2051555000                       # Total ticks spent in databus transfers
system.physmem.avgQLat                       10882.55                       # Average queueing delay per DRAM burst
system.physmem.avgBusLat                      5000.00                       # Average bus latency per DRAM burst
system.physmem.avgMemAccLat                  29632.55                       # Average memory access latency per DRAM burst
system.physmem.avgRdBW                          13.66                       # Average DRAM read bandwidth in MiByte/s
system.physmem.avgWrBW                           4.10                       # Average achieved write bandwidth in MiByte/s
system.physmem.avgRdBWSys                       13.67                       # Average system read bandwidth in MiByte/s
system.physmem.avgWrBWSys                        4.10                       # Average system write bandwidth in MiByte/s
system.physmem.peakBW                        12800.00                       # Theoretical peak bandwidth in MiByte/s
system.physmem.busUtil                           0.14                       # Data bus utilization in percentage
system.physmem.busUtilRead                       0.11                       # Data bus utilization in percentage for reads
system.physmem.busUtilWrite                      0.03                       # Data bus utilization in percentage for writes
system.physmem.avgRdQLen                         2.26                       # Average read queue length when enqueuing
system.physmem.avgWrQLen                        25.31                       # Average write queue length when enqueuing
system.physmem.readRowHits                     369445                       # Number of row buffer hits during reads
system.physmem.writeRowHits                     98595                       # Number of row buffer hits during writes
system.physmem.readRowHitRate                   90.04                       # Row buffer hit rate for reads
system.physmem.writeRowHitRate                  80.13                       # Row buffer hit rate for writes
system.physmem.avgGap                      3602335.12                       # Average gap between requests
system.physmem.pageHitRate                      87.75                       # Row buffer hit rate, read and write combined
system.physmem_0.actEnergy                  245919240                       # Energy for activate commands per rank (pJ)
system.physmem_0.preEnergy                  134182125                       # Energy for precharge commands per rank (pJ)
system.physmem_0.readEnergy                1600599000                       # Energy for read commands per rank (pJ)
system.physmem_0.writeEnergy                398636640                       # Energy for write commands per rank (pJ)
system.physmem_0.refreshEnergy           125520236400                       # Energy for refresh commands per rank (pJ)
system.physmem_0.actBackEnergy            63180018945                       # Energy for active background per rank (pJ)
system.physmem_0.preBackEnergy           1097637063000                       # Energy for precharge background per rank (pJ)
system.physmem_0.totalEnergy             1288716655350                       # Total energy per rank (pJ)
system.physmem_0.averagePower              670.590642                       # Core power per rank (mW)
system.physmem_0.memoryStateTime::IDLE   1825809460500                       # Time in different power states
system.physmem_0.memoryStateTime::REF     64171900000                       # Time in different power states
system.physmem_0.memoryStateTime::PRE_PDN            0                       # Time in different power states
system.physmem_0.memoryStateTime::ACT     31782207000                       # Time in different power states
system.physmem_0.memoryStateTime::ACT_PDN            0                       # Time in different power states
system.physmem_1.actEnergy                  247786560                       # Energy for activate commands per rank (pJ)
system.physmem_1.preEnergy                  135201000                       # Energy for precharge commands per rank (pJ)
system.physmem_1.readEnergy                1599826800                       # Energy for read commands per rank (pJ)
system.physmem_1.writeEnergy                398623680                       # Energy for write commands per rank (pJ)
system.physmem_1.refreshEnergy           125520236400                       # Energy for refresh commands per rank (pJ)
system.physmem_1.actBackEnergy            62993858085                       # Energy for active background per rank (pJ)
system.physmem_1.preBackEnergy           1097800353750                       # Energy for precharge background per rank (pJ)
system.physmem_1.totalEnergy             1288695886275                       # Total energy per rank (pJ)
system.physmem_1.averagePower              670.579840                       # Core power per rank (mW)
system.physmem_1.memoryStateTime::IDLE   1826084104500                       # Time in different power states
system.physmem_1.memoryStateTime::REF     64171900000                       # Time in different power states
system.physmem_1.memoryStateTime::PRE_PDN            0                       # Time in different power states
system.physmem_1.memoryStateTime::ACT     31507549250                       # Time in different power states
system.physmem_1.memoryStateTime::ACT_PDN            0                       # Time in different power states
system.cpu0.branchPred.lookups               16172722                       # Number of BP lookups
system.cpu0.branchPred.condPredicted         14147320                       # Number of conditional branches predicted
system.cpu0.branchPred.condIncorrect           315974                       # Number of conditional branches incorrect
system.cpu0.branchPred.BTBLookups            10263532                       # Number of BTB lookups
system.cpu0.branchPred.BTBHits                5327857                       # Number of BTB hits
system.cpu0.branchPred.BTBCorrect                   0                       # Number of correct BTB predictions (this stat may not work properly.
system.cpu0.branchPred.BTBHitPct            51.910561                       # BTB Hit Percentage
system.cpu0.branchPred.usedRAS                 805529                       # Number of times the RAS was used to get a target.
system.cpu0.branchPred.RASInCorrect             17788                       # Number of incorrect RAS predictions.
system.cpu_clk_domain.clock                       500                       # Clock period in ticks
system.cpu0.dtb.fetch_hits                          0                       # ITB hits
system.cpu0.dtb.fetch_misses                        0                       # ITB misses
system.cpu0.dtb.fetch_acv                           0                       # ITB acv
system.cpu0.dtb.fetch_accesses                      0                       # ITB accesses
system.cpu0.dtb.read_hits                     9178933                       # DTB read hits
system.cpu0.dtb.read_misses                     32423                       # DTB read misses
system.cpu0.dtb.read_acv                          530                       # DTB read access violations
system.cpu0.dtb.read_accesses                  683199                       # DTB read accesses
system.cpu0.dtb.write_hits                    5878949                       # DTB write hits
system.cpu0.dtb.write_misses                     7260                       # DTB write misses
system.cpu0.dtb.write_acv                         384                       # DTB write access violations
system.cpu0.dtb.write_accesses                 235377                       # DTB write accesses
system.cpu0.dtb.data_hits                    15057882                       # DTB hits
system.cpu0.dtb.data_misses                     39683                       # DTB misses
system.cpu0.dtb.data_acv                          914                       # DTB access violations
system.cpu0.dtb.data_accesses                  918576                       # DTB accesses
system.cpu0.itb.fetch_hits                    1433805                       # ITB hits
system.cpu0.itb.fetch_misses                    20098                       # ITB misses
system.cpu0.itb.fetch_acv                         602                       # ITB acv
system.cpu0.itb.fetch_accesses                1453903                       # ITB accesses
system.cpu0.itb.read_hits                           0                       # DTB read hits
system.cpu0.itb.read_misses                         0                       # DTB read misses
system.cpu0.itb.read_acv                            0                       # DTB read access violations
system.cpu0.itb.read_accesses                       0                       # DTB read accesses
system.cpu0.itb.write_hits                          0                       # DTB write hits
system.cpu0.itb.write_misses                        0                       # DTB write misses
system.cpu0.itb.write_acv                           0                       # DTB write access violations
system.cpu0.itb.write_accesses                      0                       # DTB write accesses
system.cpu0.itb.data_hits                           0                       # DTB hits
system.cpu0.itb.data_misses                         0                       # DTB misses
system.cpu0.itb.data_acv                            0                       # DTB access violations
system.cpu0.itb.data_accesses                       0                       # DTB accesses
system.cpu0.numCycles                       146988157                       # number of cpu cycles simulated
system.cpu0.numWorkItemsStarted                     0                       # number of work items this cpu started
system.cpu0.numWorkItemsCompleted                   0                       # number of work items this cpu completed
system.cpu0.fetch.icacheStallCycles          26434329                       # Number of cycles fetch is stalled on an Icache miss
system.cpu0.fetch.Insts                      70323281                       # Number of instructions fetch has processed
system.cpu0.fetch.Branches                   16172722                       # Number of branches that fetch encountered
system.cpu0.fetch.predictedBranches           6133386                       # Number of branches that fetch has predicted taken
system.cpu0.fetch.Cycles                    112438747                       # Number of cycles fetch has run and was not squashing or blocked
system.cpu0.fetch.SquashCycles                1062414                       # Number of cycles fetch has spent squashing
system.cpu0.fetch.TlbCycles                       847                       # Number of cycles fetch has spent waiting for tlb
system.cpu0.fetch.MiscStallCycles               30229                       # Number of cycles fetch has spent waiting on interrupts, or bad addresses, or out of MSHRs
system.cpu0.fetch.PendingTrapStallCycles       925731                       # Number of stall cycles due to pending traps
system.cpu0.fetch.PendingQuiesceStallCycles       462393                       # Number of stall cycles due to pending quiesce instructions
system.cpu0.fetch.IcacheWaitRetryStallCycles          403                       # Number of stall cycles due to full MSHR
system.cpu0.fetch.CacheLines                  8125656                       # Number of cache lines fetched
system.cpu0.fetch.IcacheSquashes               231201                       # Number of outstanding Icache misses that were squashed
system.cpu0.fetch.ItlbSquashes                      1                       # Number of outstanding ITLB misses that were squashed
system.cpu0.fetch.rateDist::samples         140823886                       # Number of instructions fetched each cycle (Total)
system.cpu0.fetch.rateDist::mean             0.499370                       # Number of instructions fetched each cycle (Total)
system.cpu0.fetch.rateDist::stdev            1.736005                       # Number of instructions fetched each cycle (Total)
system.cpu0.fetch.rateDist::underflows              0      0.00%      0.00% # Number of instructions fetched each cycle (Total)
system.cpu0.fetch.rateDist::0               127673480     90.66%     90.66% # Number of instructions fetched each cycle (Total)
system.cpu0.fetch.rateDist::1                  835079      0.59%     91.25% # Number of instructions fetched each cycle (Total)
system.cpu0.fetch.rateDist::2                 1817427      1.29%     92.55% # Number of instructions fetched each cycle (Total)
system.cpu0.fetch.rateDist::3                  778983      0.55%     93.10% # Number of instructions fetched each cycle (Total)
system.cpu0.fetch.rateDist::4                 2600412      1.85%     94.95% # Number of instructions fetched each cycle (Total)
system.cpu0.fetch.rateDist::5                  568090      0.40%     95.35% # Number of instructions fetched each cycle (Total)
system.cpu0.fetch.rateDist::6                  652333      0.46%     95.81% # Number of instructions fetched each cycle (Total)
system.cpu0.fetch.rateDist::7                  824353      0.59%     96.40% # Number of instructions fetched each cycle (Total)
system.cpu0.fetch.rateDist::8                 5073729      3.60%    100.00% # Number of instructions fetched each cycle (Total)
system.cpu0.fetch.rateDist::overflows               0      0.00%    100.00% # Number of instructions fetched each cycle (Total)
system.cpu0.fetch.rateDist::min_value               0                       # Number of instructions fetched each cycle (Total)
system.cpu0.fetch.rateDist::max_value               8                       # Number of instructions fetched each cycle (Total)
system.cpu0.fetch.rateDist::total           140823886                       # Number of instructions fetched each cycle (Total)
system.cpu0.fetch.branchRate                 0.110027                       # Number of branch fetches per cycle
system.cpu0.fetch.rate                       0.478428                       # Number of inst fetches per cycle
system.cpu0.decode.IdleCycles                21407057                       # Number of cycles decode is idle
system.cpu0.decode.BlockedCycles            108692435                       # Number of cycles decode is blocked
system.cpu0.decode.RunCycles                  8462793                       # Number of cycles decode is running
system.cpu0.decode.UnblockCycles              1765937                       # Number of cycles decode is unblocking
system.cpu0.decode.SquashCycles                495663                       # Number of cycles decode is squashing
system.cpu0.decode.BranchResolved              515138                       # Number of times decode resolved a branch
system.cpu0.decode.BranchMispred                35957                       # Number of times decode detected a branch misprediction
system.cpu0.decode.DecodedInsts              61540375                       # Number of instructions handled by decode
system.cpu0.decode.SquashedInsts               109013                       # Number of squashed instructions handled by decode
system.cpu0.rename.SquashCycles                495663                       # Number of cycles rename is squashing
system.cpu0.rename.IdleCycles                22243524                       # Number of cycles rename is idle
system.cpu0.rename.BlockCycles               77757616                       # Number of cycles rename is blocking
system.cpu0.rename.serializeStallCycles      19856258                       # count of cycles rename stalled for serializing inst
system.cpu0.rename.RunCycles                  9307175                       # Number of cycles rename is running
system.cpu0.rename.UnblockCycles             11163648                       # Number of cycles rename is unblocking
system.cpu0.rename.RenamedInsts              59419645                       # Number of instructions processed by rename
system.cpu0.rename.ROBFullEvents               199110                       # Number of times rename has blocked due to ROB full
system.cpu0.rename.IQFullEvents               2023904                       # Number of times rename has blocked due to IQ full
system.cpu0.rename.LQFullEvents                235068                       # Number of times rename has blocked due to LQ full
system.cpu0.rename.SQFullEvents               7176378                       # Number of times rename has blocked due to SQ full
system.cpu0.rename.RenamedOperands           39704161                       # Number of destination operands rename has renamed
system.cpu0.rename.RenameLookups             72277966                       # Number of register rename lookups that rename has made
system.cpu0.rename.int_rename_lookups        72138515                       # Number of integer rename lookups
system.cpu0.rename.fp_rename_lookups           129817                       # Number of floating rename lookups
system.cpu0.rename.CommittedMaps             34987460                       # Number of HB maps that are committed
system.cpu0.rename.UndoneMaps                 4716693                       # Number of HB maps that are undone due to squashing
system.cpu0.rename.serializingInsts           1464722                       # count of serializing insts renamed
system.cpu0.rename.tempSerializingInsts        211632                       # count of temporary serializing insts renamed
system.cpu0.rename.skidInsts                 12540163                       # count of insts added to the skid buffer
system.cpu0.memDep0.insertedLoads             9262921                       # Number of loads inserted to the mem dependence unit.
system.cpu0.memDep0.insertedStores            6150917                       # Number of stores inserted to the mem dependence unit.
system.cpu0.memDep0.conflictingLoads          1355884                       # Number of conflicting loads.
system.cpu0.memDep0.conflictingStores          997025                       # Number of conflicting stores.
system.cpu0.iq.iqInstsAdded                  52994830                       # Number of instructions added to the IQ (excludes non-spec)
system.cpu0.iq.iqNonSpecInstsAdded            1876718                       # Number of non-speculative instructions added to the IQ
system.cpu0.iq.iqInstsIssued                 52216371                       # Number of instructions issued
system.cpu0.iq.iqSquashedInstsIssued            52644                       # Number of squashed instructions issued
system.cpu0.iq.iqSquashedInstsExamined        6477091                       # Number of squashed instructions iterated over during squash; mainly for profiling
system.cpu0.iq.iqSquashedOperandsExamined      2861227                       # Number of squashed operands that are examined and possibly removed from graph
system.cpu0.iq.iqSquashedNonSpecRemoved       1292062                       # Number of squashed non-spec instructions that were removed
system.cpu0.iq.issued_per_cycle::samples    140823886                       # Number of insts issued each cycle
system.cpu0.iq.issued_per_cycle::mean        0.370792                       # Number of insts issued each cycle
system.cpu0.iq.issued_per_cycle::stdev       1.088351                       # Number of insts issued each cycle
system.cpu0.iq.issued_per_cycle::underflows            0      0.00%      0.00% # Number of insts issued each cycle
system.cpu0.iq.issued_per_cycle::0          119350315     84.75%     84.75% # Number of insts issued each cycle
system.cpu0.iq.issued_per_cycle::1            9307127      6.61%     91.36% # Number of insts issued each cycle
system.cpu0.iq.issued_per_cycle::2            3871720      2.75%     94.11% # Number of insts issued each cycle
system.cpu0.iq.issued_per_cycle::3            2724493      1.93%     96.04% # Number of insts issued each cycle
system.cpu0.iq.issued_per_cycle::4            2821208      2.00%     98.05% # Number of insts issued each cycle
system.cpu0.iq.issued_per_cycle::5            1374944      0.98%     99.02% # Number of insts issued each cycle
system.cpu0.iq.issued_per_cycle::6             898986      0.64%     99.66% # Number of insts issued each cycle
system.cpu0.iq.issued_per_cycle::7             361887      0.26%     99.92% # Number of insts issued each cycle
system.cpu0.iq.issued_per_cycle::8             113206      0.08%    100.00% # Number of insts issued each cycle
system.cpu0.iq.issued_per_cycle::overflows            0      0.00%    100.00% # Number of insts issued each cycle
system.cpu0.iq.issued_per_cycle::min_value            0                       # Number of insts issued each cycle
system.cpu0.iq.issued_per_cycle::max_value            8                       # Number of insts issued each cycle
system.cpu0.iq.issued_per_cycle::total      140823886                       # Number of insts issued each cycle
system.cpu0.iq.fu_full::No_OpClass                  0      0.00%      0.00% # attempts to use FU when none available
system.cpu0.iq.fu_full::IntAlu                 180499     18.19%     18.19% # attempts to use FU when none available
system.cpu0.iq.fu_full::IntMult                     1      0.00%     18.19% # attempts to use FU when none available
system.cpu0.iq.fu_full::IntDiv                      0      0.00%     18.19% # attempts to use FU when none available
system.cpu0.iq.fu_full::FloatAdd                    0      0.00%     18.19% # attempts to use FU when none available
system.cpu0.iq.fu_full::FloatCmp                    0      0.00%     18.19% # attempts to use FU when none available
system.cpu0.iq.fu_full::FloatCvt                    0      0.00%     18.19% # attempts to use FU when none available
system.cpu0.iq.fu_full::FloatMult                   0      0.00%     18.19% # attempts to use FU when none available
system.cpu0.iq.fu_full::FloatDiv                    0      0.00%     18.19% # attempts to use FU when none available
system.cpu0.iq.fu_full::FloatSqrt                   0      0.00%     18.19% # attempts to use FU when none available
system.cpu0.iq.fu_full::SimdAdd                     0      0.00%     18.19% # attempts to use FU when none available
system.cpu0.iq.fu_full::SimdAddAcc                  0      0.00%     18.19% # attempts to use FU when none available
system.cpu0.iq.fu_full::SimdAlu                     0      0.00%     18.19% # attempts to use FU when none available
system.cpu0.iq.fu_full::SimdCmp                     0      0.00%     18.19% # attempts to use FU when none available
system.cpu0.iq.fu_full::SimdCvt                     0      0.00%     18.19% # attempts to use FU when none available
system.cpu0.iq.fu_full::SimdMisc                    0      0.00%     18.19% # attempts to use FU when none available
system.cpu0.iq.fu_full::SimdMult                    0      0.00%     18.19% # attempts to use FU when none available
system.cpu0.iq.fu_full::SimdMultAcc                 0      0.00%     18.19% # attempts to use FU when none available
system.cpu0.iq.fu_full::SimdShift                   0      0.00%     18.19% # attempts to use FU when none available
system.cpu0.iq.fu_full::SimdShiftAcc                0      0.00%     18.19% # attempts to use FU when none available
system.cpu0.iq.fu_full::SimdSqrt                    0      0.00%     18.19% # attempts to use FU when none available
system.cpu0.iq.fu_full::SimdFloatAdd                0      0.00%     18.19% # attempts to use FU when none available
system.cpu0.iq.fu_full::SimdFloatAlu                0      0.00%     18.19% # attempts to use FU when none available
system.cpu0.iq.fu_full::SimdFloatCmp                0      0.00%     18.19% # attempts to use FU when none available
system.cpu0.iq.fu_full::SimdFloatCvt                0      0.00%     18.19% # attempts to use FU when none available
system.cpu0.iq.fu_full::SimdFloatDiv                0      0.00%     18.19% # attempts to use FU when none available
system.cpu0.iq.fu_full::SimdFloatMisc               0      0.00%     18.19% # attempts to use FU when none available
system.cpu0.iq.fu_full::SimdFloatMult               0      0.00%     18.19% # attempts to use FU when none available
system.cpu0.iq.fu_full::SimdFloatMultAcc            0      0.00%     18.19% # attempts to use FU when none available
system.cpu0.iq.fu_full::SimdFloatSqrt               0      0.00%     18.19% # attempts to use FU when none available
system.cpu0.iq.fu_full::MemRead                473486     47.73%     65.92% # attempts to use FU when none available
system.cpu0.iq.fu_full::MemWrite               338115     34.08%    100.00% # attempts to use FU when none available
system.cpu0.iq.fu_full::IprAccess                   0      0.00%    100.00% # attempts to use FU when none available
system.cpu0.iq.fu_full::InstPrefetch                0      0.00%    100.00% # attempts to use FU when none available
system.cpu0.iq.FU_type_0::No_OpClass             3780      0.01%      0.01% # Type of FU issued
system.cpu0.iq.FU_type_0::IntAlu             35829212     68.62%     68.62% # Type of FU issued
system.cpu0.iq.FU_type_0::IntMult               56563      0.11%     68.73% # Type of FU issued
system.cpu0.iq.FU_type_0::IntDiv                    0      0.00%     68.73% # Type of FU issued
system.cpu0.iq.FU_type_0::FloatAdd              28580      0.05%     68.79% # Type of FU issued
system.cpu0.iq.FU_type_0::FloatCmp                  0      0.00%     68.79% # Type of FU issued
system.cpu0.iq.FU_type_0::FloatCvt                  0      0.00%     68.79% # Type of FU issued
system.cpu0.iq.FU_type_0::FloatMult                 0      0.00%     68.79% # Type of FU issued
system.cpu0.iq.FU_type_0::FloatDiv               1883      0.00%     68.79% # Type of FU issued
system.cpu0.iq.FU_type_0::FloatSqrt                 0      0.00%     68.79% # Type of FU issued
system.cpu0.iq.FU_type_0::SimdAdd                   0      0.00%     68.79% # Type of FU issued
system.cpu0.iq.FU_type_0::SimdAddAcc                0      0.00%     68.79% # Type of FU issued
system.cpu0.iq.FU_type_0::SimdAlu                   0      0.00%     68.79% # Type of FU issued
system.cpu0.iq.FU_type_0::SimdCmp                   0      0.00%     68.79% # Type of FU issued
system.cpu0.iq.FU_type_0::SimdCvt                   0      0.00%     68.79% # Type of FU issued
system.cpu0.iq.FU_type_0::SimdMisc                  0      0.00%     68.79% # Type of FU issued
system.cpu0.iq.FU_type_0::SimdMult                  0      0.00%     68.79% # Type of FU issued
system.cpu0.iq.FU_type_0::SimdMultAcc               0      0.00%     68.79% # Type of FU issued
system.cpu0.iq.FU_type_0::SimdShift                 0      0.00%     68.79% # Type of FU issued
system.cpu0.iq.FU_type_0::SimdShiftAcc              0      0.00%     68.79% # Type of FU issued
system.cpu0.iq.FU_type_0::SimdSqrt                  0      0.00%     68.79% # Type of FU issued
system.cpu0.iq.FU_type_0::SimdFloatAdd              0      0.00%     68.79% # Type of FU issued
system.cpu0.iq.FU_type_0::SimdFloatAlu              0      0.00%     68.79% # Type of FU issued
system.cpu0.iq.FU_type_0::SimdFloatCmp              0      0.00%     68.79% # Type of FU issued
system.cpu0.iq.FU_type_0::SimdFloatCvt              0      0.00%     68.79% # Type of FU issued
system.cpu0.iq.FU_type_0::SimdFloatDiv              0      0.00%     68.79% # Type of FU issued
system.cpu0.iq.FU_type_0::SimdFloatMisc             0      0.00%     68.79% # Type of FU issued
system.cpu0.iq.FU_type_0::SimdFloatMult             0      0.00%     68.79% # Type of FU issued
system.cpu0.iq.FU_type_0::SimdFloatMultAcc            0      0.00%     68.79% # Type of FU issued
system.cpu0.iq.FU_type_0::SimdFloatSqrt             0      0.00%     68.79% # Type of FU issued
system.cpu0.iq.FU_type_0::MemRead             9526937     18.25%     87.04% # Type of FU issued
system.cpu0.iq.FU_type_0::MemWrite            5949680     11.39%     98.43% # Type of FU issued
system.cpu0.iq.FU_type_0::IprAccess            819736      1.57%    100.00% # Type of FU issued
system.cpu0.iq.FU_type_0::InstPrefetch              0      0.00%    100.00% # Type of FU issued
system.cpu0.iq.FU_type_0::total              52216371                       # Type of FU issued
system.cpu0.iq.rate                          0.355242                       # Inst issue rate
system.cpu0.iq.fu_busy_cnt                     992101                       # FU busy when requested
system.cpu0.iq.fu_busy_rate                  0.019000                       # FU busy rate (busy events/executed inst)
system.cpu0.iq.int_inst_queue_reads         245730281                       # Number of integer instruction queue reads
system.cpu0.iq.int_inst_queue_writes         61098362                       # Number of integer instruction queue writes
system.cpu0.iq.int_inst_queue_wakeup_accesses     50826597                       # Number of integer instruction queue wakeup accesses
system.cpu0.iq.fp_inst_queue_reads             571091                       # Number of floating instruction queue reads
system.cpu0.iq.fp_inst_queue_writes            267903                       # Number of floating instruction queue writes
system.cpu0.iq.fp_inst_queue_wakeup_accesses       262355                       # Number of floating instruction queue wakeup accesses
system.cpu0.iq.int_alu_accesses              52896880                       # Number of integer alu accesses
system.cpu0.iq.fp_alu_accesses                 307812                       # Number of floating point alu accesses
system.cpu0.iew.lsq.thread0.forwLoads          579556                       # Number of loads that had data forwarded from stores
system.cpu0.iew.lsq.thread0.invAddrLoads            0                       # Number of loads ignored due to an invalid address
system.cpu0.iew.lsq.thread0.squashedLoads      1070231                       # Number of loads squashed
system.cpu0.iew.lsq.thread0.ignoredResponses         2809                       # Number of memory responses ignored because the instruction is squashed
system.cpu0.iew.lsq.thread0.memOrderViolation        17956                       # Number of memory ordering violations
system.cpu0.iew.lsq.thread0.squashedStores       496898                       # Number of stores squashed
system.cpu0.iew.lsq.thread0.invAddrSwpfs            0                       # Number of software prefetches ignored due to an invalid address
system.cpu0.iew.lsq.thread0.blockedLoads            0                       # Number of blocked loads due to partial load-store forwarding
system.cpu0.iew.lsq.thread0.rescheduledLoads        18718                       # Number of loads that were rescheduled
system.cpu0.iew.lsq.thread0.cacheBlocked       406168                       # Number of times an access to memory failed due to the cache being blocked
system.cpu0.iew.iewIdleCycles                       0                       # Number of cycles IEW is idle
system.cpu0.iew.iewSquashCycles                495663                       # Number of cycles IEW is squashing
system.cpu0.iew.iewBlockCycles               74229287                       # Number of cycles IEW is blocking
system.cpu0.iew.iewUnblockCycles              1063310                       # Number of cycles IEW is unblocking
system.cpu0.iew.iewDispatchedInsts           58247929                       # Number of instructions dispatched to IQ
system.cpu0.iew.iewDispSquashedInsts           119878                       # Number of squashed instructions skipped by dispatch
system.cpu0.iew.iewDispLoadInsts              9262921                       # Number of dispatched load instructions
system.cpu0.iew.iewDispStoreInsts             6150917                       # Number of dispatched store instructions
system.cpu0.iew.iewDispNonSpecInsts           1658630                       # Number of dispatched non-speculative instructions
system.cpu0.iew.iewIQFullEvents                 39535                       # Number of times the IQ has become full, causing a stall
system.cpu0.iew.iewLSQFullEvents               822687                       # Number of times the LSQ has become full, causing a stall
system.cpu0.iew.memOrderViolationEvents         17956                       # Number of memory order violations
system.cpu0.iew.predictedTakenIncorrect        156887                       # Number of branches that were predicted taken incorrectly
system.cpu0.iew.predictedNotTakenIncorrect       351474                       # Number of branches that were predicted not taken incorrectly
system.cpu0.iew.branchMispredicts              508361                       # Number of branch mispredicts detected at execute
system.cpu0.iew.iewExecutedInsts             51713827                       # Number of executed instructions
system.cpu0.iew.iewExecLoadInsts              9234499                       # Number of load instructions executed
system.cpu0.iew.iewExecSquashedInsts           502543                       # Number of squashed instructions skipped in execute
system.cpu0.iew.exec_swp                            0                       # number of swp insts executed
system.cpu0.iew.exec_nop                      3376381                       # number of nop insts executed
system.cpu0.iew.exec_refs                    15134335                       # number of memory reference insts executed
system.cpu0.iew.exec_branches                 8213447                       # Number of branches executed
system.cpu0.iew.exec_stores                   5899836                       # Number of stores executed
system.cpu0.iew.exec_rate                    0.351823                       # Inst execution rate
system.cpu0.iew.wb_sent                      51204042                       # cumulative count of insts sent to commit
system.cpu0.iew.wb_count                     51088952                       # cumulative count of insts written-back
system.cpu0.iew.wb_producers                 26321891                       # num instructions producing a value
system.cpu0.iew.wb_consumers                 36458900                       # num instructions consuming a value
system.cpu0.iew.wb_penalized                        0                       # number of instrctions required to write to 'other' IQ
system.cpu0.iew.wb_rate                      0.347572                       # insts written-back per cycle
system.cpu0.iew.wb_fanout                    0.721961                       # average fanout of values written-back
system.cpu0.iew.wb_penalized_rate                   0                       # fraction of instructions written-back that wrote to 'other' IQ
system.cpu0.commit.commitSquashedInsts        6803374                       # The number of squashed insts skipped by commit
system.cpu0.commit.commitNonSpecStalls         584656                       # The number of times commit has been forced to stall to communicate backwards
system.cpu0.commit.branchMispredicts           464905                       # The number of times a branch was mispredicted
system.cpu0.commit.committed_per_cycle::samples    139620670                       # Number of insts commited each cycle
system.cpu0.commit.committed_per_cycle::mean     0.367725                       # Number of insts commited each cycle
system.cpu0.commit.committed_per_cycle::stdev     1.257359                       # Number of insts commited each cycle
system.cpu0.commit.committed_per_cycle::underflows            0      0.00%      0.00% # Number of insts commited each cycle
system.cpu0.commit.committed_per_cycle::0    121488072     87.01%     87.01% # Number of insts commited each cycle
system.cpu0.commit.committed_per_cycle::1      7189020      5.15%     92.16% # Number of insts commited each cycle
system.cpu0.commit.committed_per_cycle::2      3942453      2.82%     94.99% # Number of insts commited each cycle
system.cpu0.commit.committed_per_cycle::3      2051651      1.47%     96.46% # Number of insts commited each cycle
system.cpu0.commit.committed_per_cycle::4      1610967      1.15%     97.61% # Number of insts commited each cycle
system.cpu0.commit.committed_per_cycle::5       576073      0.41%     98.02% # Number of insts commited each cycle
system.cpu0.commit.committed_per_cycle::6       437348      0.31%     98.33% # Number of insts commited each cycle
system.cpu0.commit.committed_per_cycle::7       435843      0.31%     98.65% # Number of insts commited each cycle
system.cpu0.commit.committed_per_cycle::8      1889243      1.35%    100.00% # Number of insts commited each cycle
system.cpu0.commit.committed_per_cycle::overflows            0      0.00%    100.00% # Number of insts commited each cycle
system.cpu0.commit.committed_per_cycle::min_value            0                       # Number of insts commited each cycle
system.cpu0.commit.committed_per_cycle::max_value            8                       # Number of insts commited each cycle
system.cpu0.commit.committed_per_cycle::total    139620670                       # Number of insts commited each cycle
system.cpu0.commit.committedInsts            51342045                       # Number of instructions committed
system.cpu0.commit.committedOps              51342045                       # Number of ops (including micro ops) committed
system.cpu0.commit.swp_count                        0                       # Number of s/w prefetches committed
system.cpu0.commit.refs                      13846709                       # Number of memory references committed
system.cpu0.commit.loads                      8192690                       # Number of loads committed
system.cpu0.commit.membars                     198882                       # Number of memory barriers committed
system.cpu0.commit.branches                   7762297                       # Number of branches committed
system.cpu0.commit.fp_insts                    259271                       # Number of committed floating point instructions.
system.cpu0.commit.int_insts                 47551840                       # Number of committed integer instructions.
system.cpu0.commit.function_calls              657143                       # Number of function calls committed.
system.cpu0.commit.op_class_0::No_OpClass      2951360      5.75%      5.75% # Class of committed instruction
system.cpu0.commit.op_class_0::IntAlu        33433980     65.12%     70.87% # Class of committed instruction
system.cpu0.commit.op_class_0::IntMult          55376      0.11%     70.98% # Class of committed instruction
system.cpu0.commit.op_class_0::IntDiv               0      0.00%     70.98% # Class of committed instruction
system.cpu0.commit.op_class_0::FloatAdd         28117      0.05%     71.03% # Class of committed instruction
system.cpu0.commit.op_class_0::FloatCmp             0      0.00%     71.03% # Class of committed instruction
system.cpu0.commit.op_class_0::FloatCvt             0      0.00%     71.03% # Class of committed instruction
system.cpu0.commit.op_class_0::FloatMult            0      0.00%     71.03% # Class of committed instruction
system.cpu0.commit.op_class_0::FloatDiv          1883      0.00%     71.03% # Class of committed instruction
system.cpu0.commit.op_class_0::FloatSqrt            0      0.00%     71.03% # Class of committed instruction
system.cpu0.commit.op_class_0::SimdAdd              0      0.00%     71.03% # Class of committed instruction
system.cpu0.commit.op_class_0::SimdAddAcc            0      0.00%     71.03% # Class of committed instruction
system.cpu0.commit.op_class_0::SimdAlu              0      0.00%     71.03% # Class of committed instruction
system.cpu0.commit.op_class_0::SimdCmp              0      0.00%     71.03% # Class of committed instruction
system.cpu0.commit.op_class_0::SimdCvt              0      0.00%     71.03% # Class of committed instruction
system.cpu0.commit.op_class_0::SimdMisc             0      0.00%     71.03% # Class of committed instruction
system.cpu0.commit.op_class_0::SimdMult             0      0.00%     71.03% # Class of committed instruction
system.cpu0.commit.op_class_0::SimdMultAcc            0      0.00%     71.03% # Class of committed instruction
system.cpu0.commit.op_class_0::SimdShift            0      0.00%     71.03% # Class of committed instruction
system.cpu0.commit.op_class_0::SimdShiftAcc            0      0.00%     71.03% # Class of committed instruction
system.cpu0.commit.op_class_0::SimdSqrt             0      0.00%     71.03% # Class of committed instruction
system.cpu0.commit.op_class_0::SimdFloatAdd            0      0.00%     71.03% # Class of committed instruction
system.cpu0.commit.op_class_0::SimdFloatAlu            0      0.00%     71.03% # Class of committed instruction
system.cpu0.commit.op_class_0::SimdFloatCmp            0      0.00%     71.03% # Class of committed instruction
system.cpu0.commit.op_class_0::SimdFloatCvt            0      0.00%     71.03% # Class of committed instruction
system.cpu0.commit.op_class_0::SimdFloatDiv            0      0.00%     71.03% # Class of committed instruction
system.cpu0.commit.op_class_0::SimdFloatMisc            0      0.00%     71.03% # Class of committed instruction
system.cpu0.commit.op_class_0::SimdFloatMult            0      0.00%     71.03% # Class of committed instruction
system.cpu0.commit.op_class_0::SimdFloatMultAcc            0      0.00%     71.03% # Class of committed instruction
system.cpu0.commit.op_class_0::SimdFloatSqrt            0      0.00%     71.03% # Class of committed instruction
system.cpu0.commit.op_class_0::MemRead        8391572     16.34%     87.38% # Class of committed instruction
system.cpu0.commit.op_class_0::MemWrite       5660021     11.02%     98.40% # Class of committed instruction
system.cpu0.commit.op_class_0::IprAccess       819736      1.60%    100.00% # Class of committed instruction
system.cpu0.commit.op_class_0::InstPrefetch            0      0.00%    100.00% # Class of committed instruction
system.cpu0.commit.op_class_0::total         51342045                       # Class of committed instruction
system.cpu0.commit.bw_lim_events              1889243                       # number cycles where commit BW limit reached
system.cpu0.rob.rob_reads                   195675599                       # The number of ROB reads
system.cpu0.rob.rob_writes                  117488366                       # The number of ROB writes
system.cpu0.timesIdled                         519286                       # Number of times that the entire CPU went into an idle state and unscheduled itself
system.cpu0.idleCycles                        6164271                       # Total number of cycles that the CPU has spent unscheduled due to idling
system.cpu0.quiesceCycles                  3696539134                       # Total number of cycles that CPU has spent quiesced or waiting for an interrupt
system.cpu0.committedInsts                   48394452                       # Number of Instructions Simulated
system.cpu0.committedOps                     48394452                       # Number of Ops (including micro ops) Simulated
system.cpu0.cpi                              3.037294                       # CPI: Cycles Per Instruction
system.cpu0.cpi_total                        3.037294                       # CPI: Total CPI of All Threads
system.cpu0.ipc                              0.329240                       # IPC: Instructions Per Cycle
system.cpu0.ipc_total                        0.329240                       # IPC: Total IPC of All Threads
system.cpu0.int_regfile_reads                67992315                       # number of integer regfile reads
system.cpu0.int_regfile_writes               36972661                       # number of integer regfile writes
system.cpu0.fp_regfile_reads                   128885                       # number of floating regfile reads
system.cpu0.fp_regfile_writes                  130381                       # number of floating regfile writes
system.cpu0.misc_regfile_reads                1712039                       # number of misc regfile reads
system.cpu0.misc_regfile_writes                819549                       # number of misc regfile writes
system.cpu0.dcache.tags.replacements          1282830                       # number of replacements
system.cpu0.dcache.tags.tagsinuse          506.258957                       # Cycle average of tags in use
system.cpu0.dcache.tags.total_refs           10531989                       # Total number of references to valid blocks.
system.cpu0.dcache.tags.sampled_refs          1283342                       # Sample count of references to valid blocks.
system.cpu0.dcache.tags.avg_refs             8.206689                       # Average number of references to valid blocks.
system.cpu0.dcache.tags.warmup_cycle         36097500                       # Cycle when the warmup percentage was hit.
system.cpu0.dcache.tags.occ_blocks::cpu0.data   506.258957                       # Average occupied blocks per requestor
system.cpu0.dcache.tags.occ_percent::cpu0.data     0.988787                       # Average percentage of cache occupancy
system.cpu0.dcache.tags.occ_percent::total     0.988787                       # Average percentage of cache occupancy
system.cpu0.dcache.tags.occ_task_id_blocks::1024          512                       # Occupied blocks per task id
system.cpu0.dcache.tags.age_task_id_blocks_1024::0          219                       # Occupied blocks per task id
system.cpu0.dcache.tags.age_task_id_blocks_1024::1          245                       # Occupied blocks per task id
system.cpu0.dcache.tags.age_task_id_blocks_1024::2           48                       # Occupied blocks per task id
system.cpu0.dcache.tags.occ_task_id_percent::1024            1                       # Percentage of cache occupancy per task id
system.cpu0.dcache.tags.tag_accesses         56925383                       # Number of tag accesses
system.cpu0.dcache.tags.data_accesses        56925383                       # Number of data accesses
system.cpu0.dcache.ReadReq_hits::cpu0.data      6490454                       # number of ReadReq hits
system.cpu0.dcache.ReadReq_hits::total        6490454                       # number of ReadReq hits
system.cpu0.dcache.WriteReq_hits::cpu0.data      3680062                       # number of WriteReq hits
system.cpu0.dcache.WriteReq_hits::total       3680062                       # number of WriteReq hits
system.cpu0.dcache.LoadLockedReq_hits::cpu0.data       162917                       # number of LoadLockedReq hits
system.cpu0.dcache.LoadLockedReq_hits::total       162917                       # number of LoadLockedReq hits
system.cpu0.dcache.StoreCondReq_hits::cpu0.data       187619                       # number of StoreCondReq hits
system.cpu0.dcache.StoreCondReq_hits::total       187619                       # number of StoreCondReq hits
[...]
system.tsunami.ethernet.postedRxDesc                0                       # number of RxDesc interrupts posted to CPU
system.tsunami.ethernet.coalescedRxDesc           nan                       # average number of RxDesc's coalesced into each post
system.tsunami.ethernet.totalRxDesc                 0                       # total number of RxDesc written to ISR
system.tsunami.ethernet.postedTxOk                  0                       # number of TxOk interrupts posted to CPU
system.tsunami.ethernet.coalescedTxOk             nan                       # average number of TxOk's coalesced into each post
system.tsunami.ethernet.totalTxOk                   0                       # total number of TxOk written to ISR
system.tsunami.ethernet.postedTxIdle                0                       # number of TxIdle interrupts posted to CPU
system.tsunami.ethernet.coalescedTxIdle           nan                       # average number of TxIdle's coalesced into each post
system.tsunami.ethernet.totalTxIdle                 0                       # total number of TxIdle written to ISR
system.tsunami.ethernet.postedTxDesc                0                       # number of TxDesc interrupts posted to CPU
system.tsunami.ethernet.coalescedTxDesc           nan                       # average number of TxDesc's coalesced into each post
system.tsunami.ethernet.totalTxDesc                 0                       # total number of TxDesc written to ISR
system.tsunami.ethernet.postedRxOrn                 0                       # number of RxOrn posted to CPU
system.tsunami.ethernet.coalescedRxOrn            nan                       # average number of RxOrn's coalesced into each post
system.tsunami.ethernet.totalRxOrn                  0                       # total number of RxOrn written to ISR
system.tsunami.ethernet.coalescedTotal            nan                       # average number of interrupts coalesced into each post
system.tsunami.ethernet.postedInterrupts            0                       # number of posts to CPU
system.tsunami.ethernet.droppedPackets              0                       # number of packets dropped
system.cpu0.kern.inst.arm                           0                       # number of arm instructions executed
system.cpu0.kern.inst.quiesce                    6535                       # number of quiesce instructions executed
system.cpu0.kern.inst.hwrei                    184475                       # number of hwrei instructions executed
system.cpu0.kern.ipl_count::0                   65083     40.50%     40.50% # number of times we switched to this ipl
system.cpu0.kern.ipl_count::21                    131      0.08%     40.59% # number of times we switched to this ipl
system.cpu0.kern.ipl_count::22                   1927      1.20%     41.79% # number of times we switched to this ipl
system.cpu0.kern.ipl_count::30                    186      0.12%     41.90% # number of times we switched to this ipl
system.cpu0.kern.ipl_count::31                  93355     58.10%    100.00% # number of times we switched to this ipl
system.cpu0.kern.ipl_count::total              160682                       # number of times we switched to this ipl
system.cpu0.kern.ipl_good::0                    64077     49.21%     49.21% # number of times we switched to this ipl from a different ipl
system.cpu0.kern.ipl_good::21                     131      0.10%     49.31% # number of times we switched to this ipl from a different ipl
system.cpu0.kern.ipl_good::22                    1927      1.48%     50.79% # number of times we switched to this ipl from a different ipl
system.cpu0.kern.ipl_good::30                     186      0.14%     50.93% # number of times we switched to this ipl from a different ipl
system.cpu0.kern.ipl_good::31                   63891     49.07%    100.00% # number of times we switched to this ipl from a different ipl
system.cpu0.kern.ipl_good::total               130212                       # number of times we switched to this ipl from a different ipl
system.cpu0.kern.ipl_ticks::0            1864797723000     97.04%     97.04% # number of cycles we spent at this ipl
system.cpu0.kern.ipl_ticks::21               61900500      0.00%     97.04% # number of cycles we spent at this ipl
system.cpu0.kern.ipl_ticks::22              553477500      0.03%     97.07% # number of cycles we spent at this ipl
system.cpu0.kern.ipl_ticks::30               85562000      0.00%     97.07% # number of cycles we spent at this ipl
system.cpu0.kern.ipl_ticks::31            56264153500      2.93%    100.00% # number of cycles we spent at this ipl
system.cpu0.kern.ipl_ticks::total        1921762816500                       # number of cycles we spent at this ipl
system.cpu0.kern.ipl_used::0                 0.984543                       # fraction of swpipl calls that actually changed the ipl
system.cpu0.kern.ipl_used::21                       1                       # fraction of swpipl calls that actually changed the ipl
system.cpu0.kern.ipl_used::22                       1                       # fraction of swpipl calls that actually changed the ipl
system.cpu0.kern.ipl_used::30                       1                       # fraction of swpipl calls that actually changed the ipl
system.cpu0.kern.ipl_used::31                0.684388                       # fraction of swpipl calls that actually changed the ipl
system.cpu0.kern.ipl_used::total             0.810371                       # fraction of swpipl calls that actually changed the ipl
system.cpu0.kern.syscall::2                         8      3.51%      3.51% # number of syscalls executed
system.cpu0.kern.syscall::3                        19      8.33%     11.84% # number of syscalls executed
system.cpu0.kern.syscall::4                         4      1.75%     13.60% # number of syscalls executed
system.cpu0.kern.syscall::6                        33     14.47%     28.07% # number of syscalls executed
system.cpu0.kern.syscall::12                        1      0.44%     28.51% # number of syscalls executed
system.cpu0.kern.syscall::17                        9      3.95%     32.46% # number of syscalls executed
system.cpu0.kern.syscall::19                       10      4.39%     36.84% # number of syscalls executed
system.cpu0.kern.syscall::20                        6      2.63%     39.47% # number of syscalls executed
system.cpu0.kern.syscall::23                        1      0.44%     39.91% # number of syscalls executed
system.cpu0.kern.syscall::24                        3      1.32%     41.23% # number of syscalls executed
system.cpu0.kern.syscall::33                        7      3.07%     44.30% # number of syscalls executed
system.cpu0.kern.syscall::41                        2      0.88%     45.18% # number of syscalls executed
system.cpu0.kern.syscall::45                       36     15.79%     60.96% # number of syscalls executed
system.cpu0.kern.syscall::47                        3      1.32%     62.28% # number of syscalls executed
system.cpu0.kern.syscall::48                       10      4.39%     66.67% # number of syscalls executed
system.cpu0.kern.syscall::54                       10      4.39%     71.05% # number of syscalls executed
system.cpu0.kern.syscall::58                        1      0.44%     71.49% # number of syscalls executed
system.cpu0.kern.syscall::59                        6      2.63%     74.12% # number of syscalls executed
system.cpu0.kern.syscall::71                       27     11.84%     85.96% # number of syscalls executed
system.cpu0.kern.syscall::73                        3      1.32%     87.28% # number of syscalls executed
system.cpu0.kern.syscall::74                        7      3.07%     90.35% # number of syscalls executed
system.cpu0.kern.syscall::87                        1      0.44%     90.79% # number of syscalls executed
system.cpu0.kern.syscall::90                        3      1.32%     92.11% # number of syscalls executed
system.cpu0.kern.syscall::92                        9      3.95%     96.05% # number of syscalls executed
system.cpu0.kern.syscall::97                        2      0.88%     96.93% # number of syscalls executed
system.cpu0.kern.syscall::98                        2      0.88%     97.81% # number of syscalls executed
system.cpu0.kern.syscall::132                       1      0.44%     98.25% # number of syscalls executed
system.cpu0.kern.syscall::144                       2      0.88%     99.12% # number of syscalls executed
system.cpu0.kern.syscall::147                       2      0.88%    100.00% # number of syscalls executed
system.cpu0.kern.syscall::total                   228                       # number of syscalls executed
system.cpu0.kern.callpal::cserve                    1      0.00%      0.00% # number of callpals executed
system.cpu0.kern.callpal::wripir                  284      0.17%      0.17% # number of callpals executed
system.cpu0.kern.callpal::wrmces                    1      0.00%      0.17% # number of callpals executed
system.cpu0.kern.callpal::wrfen                     1      0.00%      0.17% # number of callpals executed
system.cpu0.kern.callpal::wrvptptr                  1      0.00%      0.17% # number of callpals executed
system.cpu0.kern.callpal::swpctx                 3533      2.09%      2.26% # number of callpals executed
system.cpu0.kern.callpal::tbi                      50      0.03%      2.29% # number of callpals executed
system.cpu0.kern.callpal::wrent                     7      0.00%      2.29% # number of callpals executed
system.cpu0.kern.callpal::swpipl               153850     90.93%     93.22% # number of callpals executed
system.cpu0.kern.callpal::rdps                   6345      3.75%     96.97% # number of callpals executed
system.cpu0.kern.callpal::wrkgp                     1      0.00%     96.97% # number of callpals executed
system.cpu0.kern.callpal::wrusp                     3      0.00%     96.97% # number of callpals executed
system.cpu0.kern.callpal::rdusp                     9      0.01%     96.98% # number of callpals executed
system.cpu0.kern.callpal::whami                     2      0.00%     96.98% # number of callpals executed
system.cpu0.kern.callpal::rti                    4587      2.71%     99.69% # number of callpals executed
system.cpu0.kern.callpal::callsys                 386      0.23%     99.92% # number of callpals executed
system.cpu0.kern.callpal::imb                     138      0.08%    100.00% # number of callpals executed
system.cpu0.kern.callpal::total                169199                       # number of callpals executed
system.cpu0.kern.mode_switch::kernel             7137                       # number of protection mode switches
system.cpu0.kern.mode_switch::user               1347                       # number of protection mode switches
system.cpu0.kern.mode_switch::idle                  0                       # number of protection mode switches
system.cpu0.kern.mode_good::kernel               1346                      
system.cpu0.kern.mode_good::user                 1347                      
system.cpu0.kern.mode_good::idle                    0                      
system.cpu0.kern.mode_switch_good::kernel     0.188595                       # fraction of useful protection mode switches
system.cpu0.kern.mode_switch_good::user             1                       # fraction of useful protection mode switches
system.cpu0.kern.mode_switch_good::idle           nan                       # fraction of useful protection mode switches
system.cpu0.kern.mode_switch_good::total     0.317421                       # fraction of useful protection mode switches
system.cpu0.kern.mode_ticks::kernel      1919561135500     99.89%     99.89% # number of ticks spent at the given mode
system.cpu0.kern.mode_ticks::user          2201673000      0.11%    100.00% # number of ticks spent at the given mode
system.cpu0.kern.mode_ticks::idle                   0      0.00%    100.00% # number of ticks spent at the given mode
system.cpu0.kern.swap_context                    3534                       # number of times the context was actually changed
system.cpu1.kern.inst.arm                           0                       # number of arm instructions executed
system.cpu1.kern.inst.quiesce                    2548                       # number of quiesce instructions executed
system.cpu1.kern.inst.hwrei                     55164                       # number of hwrei instructions executed
system.cpu1.kern.ipl_count::0                   17245     36.53%     36.53% # number of times we switched to this ipl
system.cpu1.kern.ipl_count::22                   1925      4.08%     40.61% # number of times we switched to this ipl
system.cpu1.kern.ipl_count::30                    284      0.60%     41.21% # number of times we switched to this ipl
system.cpu1.kern.ipl_count::31                  27750     58.79%    100.00% # number of times we switched to this ipl
system.cpu1.kern.ipl_count::total               47204                       # number of times we switched to this ipl
system.cpu1.kern.ipl_good::0                    16874     47.30%     47.30% # number of times we switched to this ipl from a different ipl
system.cpu1.kern.ipl_good::22                    1925      5.40%     52.70% # number of times we switched to this ipl from a different ipl
system.cpu1.kern.ipl_good::30                     284      0.80%     53.49% # number of times we switched to this ipl from a different ipl
system.cpu1.kern.ipl_good::31                   16590     46.51%    100.00% # number of times we switched to this ipl from a different ipl
system.cpu1.kern.ipl_good::total                35673                       # number of times we switched to this ipl from a different ipl
system.cpu1.kern.ipl_ticks::0            1874997277000     97.58%     97.58% # number of cycles we spent at this ipl
system.cpu1.kern.ipl_ticks::22              538569500      0.03%     97.61% # number of cycles we spent at this ipl
system.cpu1.kern.ipl_ticks::30              135298500      0.01%     97.62% # number of cycles we spent at this ipl
system.cpu1.kern.ipl_ticks::31            45735704500      2.38%    100.00% # number of cycles we spent at this ipl
system.cpu1.kern.ipl_ticks::total        1921406849500                       # number of cycles we spent at this ipl
system.cpu1.kern.ipl_used::0                 0.978487                       # fraction of swpipl calls that actually changed the ipl
system.cpu1.kern.ipl_used::22                       1                       # fraction of swpipl calls that actually changed the ipl
system.cpu1.kern.ipl_used::30                       1                       # fraction of swpipl calls that actually changed the ipl
system.cpu1.kern.ipl_used::31                0.597838                       # fraction of swpipl calls that actually changed the ipl
system.cpu1.kern.ipl_used::total             0.755720                       # fraction of swpipl calls that actually changed the ipl
system.cpu1.kern.syscall::3                        11     11.22%     11.22% # number of syscalls executed
system.cpu1.kern.syscall::6                         9      9.18%     20.41% # number of syscalls executed
system.cpu1.kern.syscall::15                        1      1.02%     21.43% # number of syscalls executed
system.cpu1.kern.syscall::17                        6      6.12%     27.55% # number of syscalls executed
system.cpu1.kern.syscall::23                        3      3.06%     30.61% # number of syscalls executed
system.cpu1.kern.syscall::24                        3      3.06%     33.67% # number of syscalls executed
system.cpu1.kern.syscall::33                        4      4.08%     37.76% # number of syscalls executed
system.cpu1.kern.syscall::45                       18     18.37%     56.12% # number of syscalls executed
system.cpu1.kern.syscall::47                        3      3.06%     59.18% # number of syscalls executed
system.cpu1.kern.syscall::59                        1      1.02%     60.20% # number of syscalls executed
system.cpu1.kern.syscall::71                       27     27.55%     87.76% # number of syscalls executed
system.cpu1.kern.syscall::74                        9      9.18%     96.94% # number of syscalls executed
system.cpu1.kern.syscall::132                       3      3.06%    100.00% # number of syscalls executed
system.cpu1.kern.syscall::total                    98                       # number of syscalls executed
system.cpu1.kern.callpal::cserve                    1      0.00%      0.00% # number of callpals executed
system.cpu1.kern.callpal::wripir                  186      0.38%      0.38% # number of callpals executed
system.cpu1.kern.callpal::wrmces                    1      0.00%      0.38% # number of callpals executed
system.cpu1.kern.callpal::wrfen                     1      0.00%      0.39% # number of callpals executed
system.cpu1.kern.callpal::swpctx                 1056      2.16%      2.55% # number of callpals executed
system.cpu1.kern.callpal::tbi                       3      0.01%      2.56% # number of callpals executed
system.cpu1.kern.callpal::wrent                     7      0.01%      2.57% # number of callpals executed
system.cpu1.kern.callpal::swpipl                42024     86.04%     88.61% # number of callpals executed
system.cpu1.kern.callpal::rdps                   2414      4.94%     93.55% # number of callpals executed
system.cpu1.kern.callpal::wrkgp                     1      0.00%     93.55% # number of callpals executed
system.cpu1.kern.callpal::wrusp                     4      0.01%     93.56% # number of callpals executed
system.cpu1.kern.callpal::whami                     3      0.01%     93.57% # number of callpals executed
system.cpu1.kern.callpal::rti                    2970      6.08%     99.65% # number of callpals executed
system.cpu1.kern.callpal::callsys                 129      0.26%     99.91% # number of callpals executed
system.cpu1.kern.callpal::imb                      42      0.09%    100.00% # number of callpals executed
system.cpu1.kern.callpal::rdunique                  1      0.00%    100.00% # number of callpals executed
system.cpu1.kern.callpal::total                 48843                       # number of callpals executed
system.cpu1.kern.mode_switch::kernel             1253                       # number of protection mode switches
system.cpu1.kern.mode_switch::user                392                       # number of protection mode switches
system.cpu1.kern.mode_switch::idle               2414                       # number of protection mode switches
system.cpu1.kern.mode_good::kernel                600                      
system.cpu1.kern.mode_good::user                  392                      
system.cpu1.kern.mode_good::idle                  208                      
system.cpu1.kern.mode_switch_good::kernel     0.478851                       # fraction of useful protection mode switches
system.cpu1.kern.mode_switch_good::user             1                       # fraction of useful protection mode switches
system.cpu1.kern.mode_switch_good::idle      0.086164                       # fraction of useful protection mode switches
system.cpu1.kern.mode_switch_good::total     0.295639                       # fraction of useful protection mode switches
system.cpu1.kern.mode_ticks::kernel        4354098000      0.23%      0.23% # number of ticks spent at the given mode
system.cpu1.kern.mode_ticks::user           702561000      0.04%      0.26% # number of ticks spent at the given mode
system.cpu1.kern.mode_ticks::idle        1916032066000     99.74%    100.00% # number of ticks spent at the given mode
system.cpu1.kern.swap_context                    1057                       # number of times the context was actually changed

---------- End Simulation Statistics   ----------
