
---------- Begin Simulation Statistics ----------
sim_seconds                                  0.102720                      
sim_ticks                                102720088500                      
final_tick                               102720088500                      
sim_freq                                 1000000000000                      
host_inst_rate                                 108111                      
host_op_rate                                   181205                      
host_tick_rate                               84085065                      
host_mem_usage                                 318048                      
host_seconds                                  1221.62                      
sim_insts                                   132071192                      
sim_ops                                     221363384                      
system.voltage_domain.voltage                       1                      
system.clk_domain.clock                          1000                      
system.physmem.pwrStateResidencyTicks::UNDEFINED 102720088500                      
system.physmem.bytes_read::cpu.inst            235072                      
system.physmem.bytes_read::cpu.data            130880                      
system.physmem.bytes_read::total               365952                      
system.physmem.bytes_inst_read::cpu.inst       235072                      
system.physmem.bytes_inst_read::total          235072                      
system.physmem.num_reads::cpu.inst               3673                      
system.physmem.num_reads::cpu.data               2045                      
system.physmem.num_reads::total                  5718                      
system.physmem.bw_read::cpu.inst              2288472                      
system.physmem.bw_read::cpu.data              1274142                      
system.physmem.bw_read::total                 3562614                      
system.physmem.bw_inst_read::cpu.inst         2288472                      
system.physmem.bw_inst_read::total            2288472                      
system.physmem.bw_total::cpu.inst             2288472                      
system.physmem.bw_total::cpu.data             1274142                      
system.physmem.bw_total::total                3562614                      
system.physmem.readReqs                          5718                      
system.physmem.writeReqs                            0                      
system.physmem.readBursts                        5718                      
system.physmem.writeBursts                          0                      
system.physmem.bytesReadDRAM                   365952                      
system.physmem.bytesReadWrQ                         0                      
system.physmem.bytesWritten                         0                      
system.physmem.bytesReadSys                    365952                      
system.physmem.bytesWrittenSys                      0                      
system.physmem.servicedByWrQ                        0                      
system.physmem.mergedWrBursts                       0                      
system.physmem.neitherReadNorWriteReqs              0                      
system.physmem.perBankRdBursts::0                 308                      
system.physmem.perBankRdBursts::1                 393                      
system.physmem.perBankRdBursts::2                 481                      
system.physmem.perBankRdBursts::3                 362                      
system.physmem.perBankRdBursts::4                 367                      
system.physmem.perBankRdBursts::5                 342                      
system.physmem.perBankRdBursts::6                 448                      
system.physmem.perBankRdBursts::7                 369                      
system.physmem.perBankRdBursts::8                 368                      
system.physmem.perBankRdBursts::9                 301                      
system.physmem.perBankRdBursts::10                254                      
system.physmem.perBankRdBursts::11                270                      
system.physmem.perBankRdBursts::12                266                      
system.physmem.perBankRdBursts::13                486                      
system.physmem.perBankRdBursts::14                412                      
system.physmem.perBankRdBursts::15                291                      
system.physmem.perBankWrBursts::0                   0                      
system.physmem.perBankWrBursts::1                   0                      
system.physmem.perBankWrBursts::2                   0                      
system.physmem.perBankWrBursts::3                   0                      
system.physmem.perBankWrBursts::4                   0                      
system.physmem.perBankWrBursts::5                   0                      
system.physmem.perBankWrBursts::6                   0                      
system.physmem.perBankWrBursts::7                   0                      
system.physmem.perBankWrBursts::8                   0                      
system.physmem.perBankWrBursts::9                   0                      
system.physmem.perBankWrBursts::10                  0                      
system.physmem.perBankWrBursts::11                  0                      
system.physmem.perBankWrBursts::12                  0                      
system.physmem.perBankWrBursts::13                  0                      
system.physmem.perBankWrBursts::14                  0                      
system.physmem.perBankWrBursts::15                  0                      
system.physmem.numRdRetry                           0                      
system.physmem.numWrRetry                           0                      
system.physmem.totGap                    102719826000                      
system.physmem.readPktSize::0                       0                      
system.physmem.readPktSize::1                       0                      
system.physmem.readPktSize::2                       0                      
system.physmem.readPktSize::3                       0                      
system.physmem.readPktSize::4                       0                      
system.physmem.readPktSize::5                       0                      
system.physmem.readPktSize::6                    5718                      
system.physmem.writePktSize::0                      0                      
system.physmem.writePktSize::1                      0                      
system.physmem.writePktSize::2                      0                      
system.physmem.writePktSize::3                      0                      
system.physmem.writePktSize::4                      0                      
system.physmem.writePktSize::5                      0                      
system.physmem.writePktSize::6                      0                      
system.physmem.rdQLenPdf::0                      4465                      
system.physmem.rdQLenPdf::1                       986                      
system.physmem.rdQLenPdf::2                       224                      
system.physmem.rdQLenPdf::3                        32                      
system.physmem.rdQLenPdf::4                         9                      
system.physmem.rdQLenPdf::5                         2                      
system.physmem.rdQLenPdf::6                         0                      
system.physmem.rdQLenPdf::7                         0                      
system.physmem.rdQLenPdf::8                         0                      
system.physmem.rdQLenPdf::9                         0                      
system.physmem.rdQLenPdf::10                        0                      
system.physmem.rdQLenPdf::11                        0                      
system.physmem.rdQLenPdf::12                        0                      
system.physmem.rdQLenPdf::13                        0                      
system.physmem.rdQLenPdf::14                        0                      
system.physmem.rdQLenPdf::15                        0                      
system.physmem.rdQLenPdf::16                        0                      
system.physmem.rdQLenPdf::17                        0                      
system.physmem.rdQLenPdf::18                        0                      
system.physmem.rdQLenPdf::19                        0                      
system.physmem.rdQLenPdf::20                        0                      
system.physmem.rdQLenPdf::21                        0                      
system.physmem.rdQLenPdf::22                        0                      
system.physmem.rdQLenPdf::23                        0                      
system.physmem.rdQLenPdf::24                        0                      
system.physmem.rdQLenPdf::25                        0                      
system.physmem.rdQLenPdf::26                        0                      
system.physmem.rdQLenPdf::27                        0                      
system.physmem.rdQLenPdf::28                        0                      
system.physmem.rdQLenPdf::29                        0                      
system.physmem.rdQLenPdf::30                        0                      
system.physmem.rdQLenPdf::31                        0                      
system.physmem.wrQLenPdf::0                         0                      
system.physmem.wrQLenPdf::1                         0                      
system.physmem.wrQLenPdf::2                         0                      
system.physmem.wrQLenPdf::3                         0                      
system.physmem.wrQLenPdf::4                         0                      
system.physmem.wrQLenPdf::5                         0                      
system.physmem.wrQLenPdf::6                         0                      
system.physmem.wrQLenPdf::7                         0                      
system.physmem.wrQLenPdf::8                         0                      
system.physmem.wrQLenPdf::9                         0                      
system.physmem.wrQLenPdf::10                        0                      
system.physmem.wrQLenPdf::11                        0                      
system.physmem.wrQLenPdf::12                        0                      
system.physmem.wrQLenPdf::13                        0                      
system.physmem.wrQLenPdf::14                        0                      
system.physmem.wrQLenPdf::15                        0                      
system.physmem.wrQLenPdf::16                        0                      
system.physmem.wrQLenPdf::17                        0                      
system.physmem.wrQLenPdf::18                        0                      
system.physmem.wrQLenPdf::19                        0                      
system.physmem.wrQLenPdf::20                        0                      
system.physmem.wrQLenPdf::21                        0                      
system.physmem.wrQLenPdf::22                        0                      
system.physmem.wrQLenPdf::23                        0                      
system.physmem.wrQLenPdf::24                        0                      
system.physmem.wrQLenPdf::25                        0                      
system.physmem.wrQLenPdf::26                        0                      
system.physmem.wrQLenPdf::27                        0                      
system.physmem.wrQLenPdf::28                        0                      
system.physmem.wrQLenPdf::29                        0                      
system.physmem.wrQLenPdf::30                        0                      
system.physmem.wrQLenPdf::31                        0                      
system.physmem.wrQLenPdf::32                        0                      
system.physmem.wrQLenPdf::33                        0                      
system.physmem.wrQLenPdf::34                        0                      
system.physmem.wrQLenPdf::35                        0                      
system.physmem.wrQLenPdf::36                        0                      
system.physmem.wrQLenPdf::37                        0                      
system.physmem.wrQLenPdf::38                        0                      
system.physmem.wrQLenPdf::39                        0                      
system.physmem.wrQLenPdf::40                        0                      
system.physmem.wrQLenPdf::41                        0                      
system.physmem.wrQLenPdf::42                        0                      
system.physmem.wrQLenPdf::43                        0                      
system.physmem.wrQLenPdf::44                        0                      
system.physmem.wrQLenPdf::45                        0                      
system.physmem.wrQLenPdf::46                        0                      
system.physmem.wrQLenPdf::47                        0                      
system.physmem.wrQLenPdf::48                        0                      
system.physmem.wrQLenPdf::49                        0                      
system.physmem.wrQLenPdf::50                        0                      
system.physmem.wrQLenPdf::51                        0                      
system.physmem.wrQLenPdf::52                        0                      
system.physmem.wrQLenPdf::53                        0                      
system.physmem.wrQLenPdf::54                        0                      
system.physmem.wrQLenPdf::55                        0                      
system.physmem.wrQLenPdf::56                        0                      
system.physmem.wrQLenPdf::57                        0                      
system.physmem.wrQLenPdf::58                        0                      
system.physmem.wrQLenPdf::59                        0                      
system.physmem.wrQLenPdf::60                        0                      
system.physmem.wrQLenPdf::61                        0                      
system.physmem.wrQLenPdf::62                        0                      
system.physmem.wrQLenPdf::63                        0                      
system.physmem.bytesPerActivate::samples         1260                      
system.physmem.bytesPerActivate::mean      288.914286                      
system.physmem.bytesPerActivate::gmean     165.287070                      
system.physmem.bytesPerActivate::stdev     321.712301                      
system.physmem.bytesPerActivate::0-127            547     43.41%     43.41%
system.physmem.bytesPerActivate::128-255          272     21.59%     65.00%
system.physmem.bytesPerActivate::256-383          106      8.41%     73.41%
system.physmem.bytesPerActivate::384-511           51      4.05%     77.46%
system.physmem.bytesPerActivate::512-639           47      3.73%     81.19%
system.physmem.bytesPerActivate::640-767           65      5.16%     86.35%
system.physmem.bytesPerActivate::768-895           23      1.83%     88.17%
system.physmem.bytesPerActivate::896-1023           25      1.98%     90.16%
system.physmem.bytesPerActivate::1024-1151          124      9.84%    100.00%
system.physmem.bytesPerActivate::total           1260                      
system.physmem.totQLat                      196407250                      
system.physmem.totMemAccLat                 303619750                      
system.physmem.totBusLat                     28590000                      
system.physmem.avgQLat                       34348.94                      
system.physmem.avgBusLat                      5000.00                      
system.physmem.avgMemAccLat                  53098.94                      
system.physmem.avgRdBW                           3.56                      
system.physmem.avgWrBW                           0.00                      
system.physmem.avgRdBWSys                        3.56                      
system.physmem.avgWrBWSys                        0.00                      
system.physmem.peakBW                        12800.00                      
system.physmem.busUtil                           0.03                      
system.physmem.busUtilRead                       0.03                      
system.physmem.busUtilWrite                      0.00                      
system.physmem.avgRdQLen                         1.05                      
system.physmem.avgWrQLen                         0.00                      
system.physmem.readRowHits                       4449                      
system.physmem.writeRowHits                         0                      
system.physmem.readRowHitRate                   77.81                      
system.physmem.writeRowHitRate                    nan                      
system.physmem.avgGap                     17964292.76                      
system.physmem.pageHitRate                      77.81                      
system.physmem_0.actEnergy                    5397840                      
system.physmem_0.preEnergy                    2846250                      
system.physmem_0.readEnergy                  21919800                      
system.physmem_0.writeEnergy                        0                      
system.physmem_0.refreshEnergy           308549280.000000                      
system.physmem_0.actBackEnergy               94558440                      
system.physmem_0.preBackEnergy               17132160                      
system.physmem_0.actPowerDownEnergy         742713990                      
system.physmem_0.prePowerDownEnergy         449076000                      
system.physmem_0.selfRefreshEnergy        23986517265                      
system.physmem_0.totalEnergy              25628757345                      
system.physmem_0.averagePower              249.500927                      
system.physmem_0.totalIdleTime           102467665750                      
system.physmem_0.memoryStateTime::IDLE       33083500                      
system.physmem_0.memoryStateTime::REF       131252000                      
system.physmem_0.memoryStateTime::SREF    99669779750                      
system.physmem_0.memoryStateTime::PRE_PDN   1169466500                      
system.physmem_0.memoryStateTime::ACT        87760750                      
system.physmem_0.memoryStateTime::ACT_PDN   1628746000                      
system.physmem_1.actEnergy                    3662820                      
system.physmem_1.preEnergy                    1935450                      
system.physmem_1.readEnergy                  18906720                      
system.physmem_1.writeEnergy                        0                      
system.physmem_1.refreshEnergy           232333920.000000                      
system.physmem_1.actBackEnergy               74817060                      
system.physmem_1.preBackEnergy               12559200                      
system.physmem_1.actPowerDownEnergy         593057070                      
system.physmem_1.prePowerDownEnergy         320340000                      
system.physmem_1.selfRefreshEnergy        24140187000                      
system.physmem_1.totalEnergy              25397799240                      
system.physmem_1.averagePower              247.252505                      
system.physmem_1.totalIdleTime           102523033750                      
system.physmem_1.memoryStateTime::IDLE       23868000                      
system.physmem_1.memoryStateTime::REF        98790000                      
system.physmem_1.memoryStateTime::SREF   100388528750                      
system.physmem_1.memoryStateTime::PRE_PDN    834205000                      
system.physmem_1.memoryStateTime::ACT        74170500                      
system.physmem_1.memoryStateTime::ACT_PDN   1300526250                      
system.pwrStateResidencyTicks::UNDEFINED 102720088500                      
system.cpu.branchPred.lookups                40475084                      
system.cpu.branchPred.condPredicted          40475084                      
system.cpu.branchPred.condIncorrect           6616129                      
system.cpu.branchPred.BTBLookups             34806523                      
system.cpu.branchPred.BTBHits                       0                      
system.cpu.branchPred.BTBCorrect                    0                      
system.cpu.branchPred.BTBHitPct              0.000000                      
system.cpu.branchPred.usedRAS                 3130762                      
system.cpu.branchPred.RASInCorrect             590891                      
system.cpu.branchPred.indirectLookups        34806523                      
system.cpu.branchPred.indirectHits            9997741                      
system.cpu.branchPred.indirectMisses         24808782                      
system.cpu.branchPredindirectMispredicted      4890378                      
system.cpu_clk_domain.clock                       500                      
system.cpu.dtb.walker.pwrStateResidencyTicks::UNDEFINED 102720088500                      
system.cpu.apic_clk_domain.clock                 8000                      
system.cpu.interrupts.pwrStateResidencyTicks::UNDEFINED 102720088500                      
system.cpu.itb.walker.pwrStateResidencyTicks::UNDEFINED 102720088500                      
system.cpu.workload.numSyscalls                   400                      
system.cpu.pwrStateResidencyTicks::ON    102720088500                      
system.cpu.numCycles                        205440178                      
system.cpu.numWorkItemsStarted                      0                      
system.cpu.numWorkItemsCompleted                    0                      
system.cpu.fetch.icacheStallCycles           45893457                      
system.cpu.fetch.Insts                      415890076                      
system.cpu.fetch.Branches                    40475084                      
system.cpu.fetch.predictedBranches           13128503                      
system.cpu.fetch.Cycles                     151898082                      
system.cpu.fetch.SquashCycles                14677482                      
system.cpu.fetch.TlbCycles                        200                      
system.cpu.fetch.MiscStallCycles                 5835                      
system.cpu.fetch.PendingTrapStallCycles         64355                      
system.cpu.fetch.PendingQuiesceStallCycles          603                      
system.cpu.fetch.IcacheWaitRetryStallCycles          216                      
system.cpu.fetch.CacheLines                  40893606                      
system.cpu.fetch.IcacheSquashes               1496125                      
system.cpu.fetch.ItlbSquashes                      12                      
system.cpu.fetch.rateDist::samples          205201489                      
system.cpu.fetch.rateDist::mean              3.402316                      
system.cpu.fetch.rateDist::stdev             3.658034                      
system.cpu.fetch.rateDist::underflows               0      0.00%      0.00%
system.cpu.fetch.rateDist::0                 98918093     48.21%     48.21%
system.cpu.fetch.rateDist::1                  5142251      2.51%     50.71%
system.cpu.fetch.rateDist::2                  5340115      2.60%     53.31%
system.cpu.fetch.rateDist::3                  5342270      2.60%     55.92%
system.cpu.fetch.rateDist::4                  5947887      2.90%     58.82%
system.cpu.fetch.rateDist::5                  5817548      2.84%     61.65%
system.cpu.fetch.rateDist::6                  5684311      2.77%     64.42%
system.cpu.fetch.rateDist::7                  4746260      2.31%     66.73%
system.cpu.fetch.rateDist::8                 68262754     33.27%    100.00%
system.cpu.fetch.rateDist::overflows                0      0.00%    100.00%
system.cpu.fetch.rateDist::min_value                0                      
system.cpu.fetch.rateDist::max_value                8                      
system.cpu.fetch.rateDist::total            205201489                      
system.cpu.fetch.branchRate                  0.197016                      
system.cpu.fetch.rate                        2.024385                      
system.cpu.decode.IdleCycles                 31935868                      
system.cpu.decode.BlockedCycles              86571071                      
system.cpu.decode.RunCycles                  61623221                      
system.cpu.decode.UnblockCycles              17732588                      
system.cpu.decode.SquashCycles                7338741                      
system.cpu.decode.DecodedInsts              585423984                      
system.cpu.rename.SquashCycles                7338741                      
system.cpu.rename.IdleCycles                 41662198                      
system.cpu.rename.BlockCycles                46227032                      
system.cpu.rename.serializeStallCycles          28975                      
system.cpu.rename.RunCycles                  68218755                      
system.cpu.rename.UnblockCycles              41725788                      
system.cpu.rename.RenamedInsts              547333443                      
system.cpu.rename.ROBFullEvents                  1805                      
system.cpu.rename.IQFullEvents               36710058                      
system.cpu.rename.LQFullEvents                4936211                      
system.cpu.rename.SQFullEvents                 172839                      
system.cpu.rename.RenamedOperands           624155655                      
system.cpu.rename.RenameLookups            1473918429                      
system.cpu.rename.int_rename_lookups        966803164                      
system.cpu.rename.fp_rename_lookups          14714209                      
system.cpu.rename.CommittedMaps             259429450                      
system.cpu.rename.UndoneMaps                364726205                      
system.cpu.rename.serializingInsts               2257                      
system.cpu.rename.tempSerializingInsts           2274                      
system.cpu.rename.skidInsts                  89803547                      
system.cpu.memDep0.insertedLoads            127813041                      
system.cpu.memDep0.insertedStores            45569331                      
system.cpu.memDep0.conflictingLoads          76700066                      
system.cpu.memDep0.conflictingStores         25076087                      
system.cpu.iq.iqInstsAdded                  486700641                      
system.cpu.iq.iqNonSpecInstsAdded               63617                      
system.cpu.iq.iqInstsIssued                 336591190                      
system.cpu.iq.iqSquashedInstsIssued           1075815                      
system.cpu.iq.iqSquashedInstsExamined       265400873                      
system.cpu.iq.iqSquashedOperandsExamined    520101528                      
system.cpu.iq.iqSquashedNonSpecRemoved          62372                      
system.cpu.iq.issued_per_cycle::samples     205201489                      
system.cpu.iq.issued_per_cycle::mean         1.640296                      
system.cpu.iq.issued_per_cycle::stdev        1.801230                      
system.cpu.iq.issued_per_cycle::underflows            0      0.00%      0.00%
system.cpu.iq.issued_per_cycle::0            72558251     35.36%     35.36%
system.cpu.iq.issued_per_cycle::1            46563358     22.69%     58.05%
system.cpu.iq.issued_per_cycle::2            32833586     16.00%     74.05%
system.cpu.iq.issued_per_cycle::3            20829408     10.15%     84.20%
system.cpu.iq.issued_per_cycle::4            14957393      7.29%     91.49%
system.cpu.iq.issued_per_cycle::5             8327082      4.06%     95.55%
system.cpu.iq.issued_per_cycle::6             5158084      2.51%     98.06%
system.cpu.iq.issued_per_cycle::7             2335666      1.14%     99.20%
system.cpu.iq.issued_per_cycle::8             1638661      0.80%    100.00%
system.cpu.iq.issued_per_cycle::overflows            0      0.00%    100.00%
system.cpu.iq.issued_per_cycle::min_value            0                      
system.cpu.iq.issued_per_cycle::max_value            8                      
system.cpu.iq.issued_per_cycle::total       205201489                      
system.cpu.iq.fu_full::No_OpClass                   0      0.00%      0.00%
system.cpu.iq.fu_full::IntAlu                  746083     18.99%     18.99%
system.cpu.iq.fu_full::IntMult                      0      0.00%     18.99%
system.cpu.iq.fu_full::IntDiv                       0      0.00%     18.99%
system.cpu.iq.fu_full::FloatAdd                     0      0.00%     18.99%
system.cpu.iq.fu_full::FloatCmp                     0      0.00%     18.99%
system.cpu.iq.fu_full::FloatCvt                     0      0.00%     18.99%
system.cpu.iq.fu_full::FloatMult                    0      0.00%     18.99%
system.cpu.iq.fu_full::FloatMultAcc                 0      0.00%     18.99%
system.cpu.iq.fu_full::FloatDiv                     0      0.00%     18.99%
system.cpu.iq.fu_full::FloatMisc                    0      0.00%     18.99%
system.cpu.iq.fu_full::FloatSqrt                    0      0.00%     18.99%
system.cpu.iq.fu_full::SimdAdd                      0      0.00%     18.99%
system.cpu.iq.fu_full::SimdAddAcc                   0      0.00%     18.99%
system.cpu.iq.fu_full::SimdAlu                      0      0.00%     18.99%
system.cpu.iq.fu_full::SimdCmp                      0      0.00%     18.99%
system.cpu.iq.fu_full::SimdCvt                      0      0.00%     18.99%
system.cpu.iq.fu_full::SimdMisc                     0      0.00%     18.99%
system.cpu.iq.fu_full::SimdMult                     0      0.00%     18.99%
system.cpu.iq.fu_full::SimdMultAcc                  0      0.00%     18.99%
system.cpu.iq.fu_full::SimdShift                    0      0.00%     18.99%
system.cpu.iq.fu_full::SimdShiftAcc                 0      0.00%     18.99%
system.cpu.iq.fu_full::SimdSqrt                     0      0.00%     18.99%
system.cpu.iq.fu_full::SimdFloatAdd                 0      0.00%     18.99%
system.cpu.iq.fu_full::SimdFloatAlu                 0      0.00%     18.99%
system.cpu.iq.fu_full::SimdFloatCmp                 0      0.00%     18.99%
system.cpu.iq.fu_full::SimdFloatCvt                 0      0.00%     18.99%
system.cpu.iq.fu_full::SimdFloatDiv                 0      0.00%     18.99%
system.cpu.iq.fu_full::SimdFloatMisc                0      0.00%     18.99%
system.cpu.iq.fu_full::SimdFloatMult                0      0.00%     18.99%
system.cpu.iq.fu_full::SimdFloatMultAcc             0      0.00%     18.99%
system.cpu.iq.fu_full::SimdFloatSqrt                0      0.00%     18.99%
system.cpu.iq.fu_full::MemRead                2709271     68.98%     87.97%
system.cpu.iq.fu_full::MemWrite                425877     10.84%     98.81%
system.cpu.iq.fu_full::FloatMemRead             43262      1.10%     99.91%
system.cpu.iq.fu_full::FloatMemWrite             3383      0.09%    100.00%
system.cpu.iq.fu_full::IprAccess                    0      0.00%    100.00%
system.cpu.iq.fu_full::InstPrefetch                 0      0.00%    100.00%
system.cpu.iq.FU_type_0::No_OpClass           1212158      0.36%      0.36%
system.cpu.iq.FU_type_0::IntAlu             215249595     63.95%     64.31%
system.cpu.iq.FU_type_0::IntMult               800532      0.24%     64.55%
system.cpu.iq.FU_type_0::IntDiv               7048368      2.09%     66.64%
system.cpu.iq.FU_type_0::FloatAdd             1789279      0.53%     67.17%
system.cpu.iq.FU_type_0::FloatCmp                   0      0.00%     67.17%
system.cpu.iq.FU_type_0::FloatCvt                   0      0.00%     67.17%
system.cpu.iq.FU_type_0::FloatMult                  0      0.00%     67.17%
system.cpu.iq.FU_type_0::FloatMultAcc               0      0.00%     67.17%
system.cpu.iq.FU_type_0::FloatDiv                   0      0.00%     67.17%
system.cpu.iq.FU_type_0::FloatMisc                  0      0.00%     67.17%
system.cpu.iq.FU_type_0::FloatSqrt                  0      0.00%     67.17%
system.cpu.iq.FU_type_0::SimdAdd                    0      0.00%     67.17%
system.cpu.iq.FU_type_0::SimdAddAcc                 0      0.00%     67.17%
system.cpu.iq.FU_type_0::SimdAlu                    0      0.00%     67.17%
system.cpu.iq.FU_type_0::SimdCmp                    0      0.00%     67.17%
system.cpu.iq.FU_type_0::SimdCvt                    0      0.00%     67.17%
system.cpu.iq.FU_type_0::SimdMisc                   0      0.00%     67.17%
system.cpu.iq.FU_type_0::SimdMult                   0      0.00%     67.17%
system.cpu.iq.FU_type_0::SimdMultAcc                0      0.00%     67.17%
system.cpu.iq.FU_type_0::SimdShift                  0      0.00%     67.17%
system.cpu.iq.FU_type_0::SimdShiftAcc               0      0.00%     67.17%
system.cpu.iq.FU_type_0::SimdSqrt                   0      0.00%     67.17%
system.cpu.iq.FU_type_0::SimdFloatAdd               0      0.00%     67.17%
system.cpu.iq.FU_type_0::SimdFloatAlu               0      0.00%     67.17%
system.cpu.iq.FU_type_0::SimdFloatCmp               0      0.00%     67.17%
system.cpu.iq.FU_type_0::SimdFloatCvt               0      0.00%     67.17%
system.cpu.iq.FU_type_0::SimdFloatDiv               0      0.00%     67.17%
system.cpu.iq.FU_type_0::SimdFloatMisc              0      0.00%     67.17%
system.cpu.iq.FU_type_0::SimdFloatMult              0      0.00%     67.17%
system.cpu.iq.FU_type_0::SimdFloatMultAcc            0      0.00%     67.17%
system.cpu.iq.FU_type_0::SimdFloatSqrt              0      0.00%     67.17%
system.cpu.iq.FU_type_0::MemRead             82235884     24.43%     91.61%
system.cpu.iq.FU_type_0::MemWrite            26412299      7.85%     99.45%
system.cpu.iq.FU_type_0::FloatMemRead         1712250      0.51%     99.96%
system.cpu.iq.FU_type_0::FloatMemWrite         130825      0.04%    100.00%
system.cpu.iq.FU_type_0::IprAccess                  0      0.00%    100.00%
system.cpu.iq.FU_type_0::InstPrefetch               0      0.00%    100.00%
system.cpu.iq.FU_type_0::total              336591190                      
system.cpu.iq.rate                           1.638390                      
system.cpu.iq.fu_busy_cnt                     3927876                      
system.cpu.iq.fu_busy_rate                   0.011670                      
system.cpu.iq.int_inst_queue_reads          875282503                      
system.cpu.iq.int_inst_queue_writes         737961958                      
system.cpu.iq.int_inst_queue_wakeup_accesses    314539840                      
system.cpu.iq.fp_inst_queue_reads             8105057                      
system.cpu.iq.fp_inst_queue_writes           15024545                      
system.cpu.iq.fp_inst_queue_wakeup_accesses      3526208                      
system.cpu.iq.int_alu_accesses              335233753                      
system.cpu.iq.fp_alu_accesses                 4073155                      
system.cpu.iew.lsq.thread0.forwLoads         18221651                      
system.cpu.iew.lsq.thread0.invAddrLoads             0                      
system.cpu.iew.lsq.thread0.squashedLoads     71163454                      
system.cpu.iew.lsq.thread0.ignoredResponses        53032                      
system.cpu.iew.lsq.thread0.memOrderViolation       858947                      
system.cpu.iew.lsq.thread0.squashedStores     25053614                      
system.cpu.iew.lsq.thread0.invAddrSwpfs             0                      
system.cpu.iew.lsq.thread0.blockedLoads             0                      
system.cpu.iew.lsq.thread0.rescheduledLoads        50433                      
system.cpu.iew.lsq.thread0.cacheBlocked            53                      
system.cpu.iew.iewIdleCycles                        0                      
system.cpu.iew.iewSquashCycles                7338741                      
system.cpu.iew.iewBlockCycles                35257404                      
system.cpu.iew.iewUnblockCycles                584478                      
system.cpu.iew.iewDispatchedInsts           486764258                      
system.cpu.iew.iewDispSquashedInsts           1231534                      
system.cpu.iew.iewDispLoadInsts             127813041                      
system.cpu.iew.iewDispStoreInsts             45569331                      
system.cpu.iew.iewDispNonSpecInsts              23100                      
system.cpu.iew.iewIQFullEvents                 542722                      
system.cpu.iew.iewLSQFullEvents                 38323                      
system.cpu.iew.memOrderViolationEvents         858947                      
system.cpu.iew.predictedTakenIncorrect        1297186                      
system.cpu.iew.predictedNotTakenIncorrect      6715153                      
system.cpu.iew.branchMispredicts              8012339                      
system.cpu.iew.iewExecutedInsts             324846005                      
system.cpu.iew.iewExecLoadInsts              80370798                      
system.cpu.iew.iewExecSquashedInsts          11745185                      
system.cpu.iew.exec_swp                             0                      
system.cpu.iew.exec_nop                             0                      
system.cpu.iew.exec_refs                    105939683                      
system.cpu.iew.exec_branches                 18800586                      
system.cpu.iew.exec_stores                   25568885                      
system.cpu.iew.exec_rate                     1.581219                      
system.cpu.iew.wb_sent                      321037921                      
system.cpu.iew.wb_count                     318066048                      
system.cpu.iew.wb_producers                 255309802                      
system.cpu.iew.wb_consumers                 434053551                      
system.cpu.iew.wb_rate                       1.548217                      
system.cpu.iew.wb_fanout                     0.588199                      
system.cpu.commit.commitSquashedInsts       265431246                      
system.cpu.commit.commitNonSpecStalls            1245                      
system.cpu.commit.branchMispredicts           6620627                      
system.cpu.commit.committed_per_cycle::samples    163282868                      
system.cpu.commit.committed_per_cycle::mean     1.355705                      
system.cpu.commit.committed_per_cycle::stdev     1.936594                      
system.cpu.commit.committed_per_cycle::underflows            0      0.00%      0.00%
system.cpu.commit.committed_per_cycle::0     66681318     40.84%     40.84%
system.cpu.commit.committed_per_cycle::1     54877393     33.61%     74.45%
system.cpu.commit.committed_per_cycle::2     13218924      8.10%     82.54%
system.cpu.commit.committed_per_cycle::3     10716776      6.56%     89.11%
system.cpu.commit.committed_per_cycle::4      5408932      3.31%     92.42%
system.cpu.commit.committed_per_cycle::5      3143155      1.92%     94.34%
system.cpu.commit.committed_per_cycle::6      1097443      0.67%     95.02%
system.cpu.commit.committed_per_cycle::7      1149762      0.70%     95.72%
system.cpu.commit.committed_per_cycle::8      6989165      4.28%    100.00%
system.cpu.commit.committed_per_cycle::overflows            0      0.00%    100.00%
system.cpu.commit.committed_per_cycle::min_value            0                      
system.cpu.commit.committed_per_cycle::max_value            8                      
system.cpu.commit.committed_per_cycle::total    163282868                      
system.cpu.commit.committedInsts            132071192                      
system.cpu.commit.committedOps              221363384                      
system.cpu.commit.swp_count                         0                      
system.cpu.commit.refs                       77165304                      
system.cpu.commit.loads                      56649587                      
system.cpu.commit.membars                           0                      
system.cpu.commit.branches                   12326938                      
system.cpu.commit.fp_insts                    2162459                      
system.cpu.commit.int_insts                 219019985                      
system.cpu.commit.function_calls               797818                      
system.cpu.commit.op_class_0::No_OpClass      1176721      0.53%      0.53%
system.cpu.commit.op_class_0::IntAlu        134111832     60.58%     61.12%
system.cpu.commit.op_class_0::IntMult          772953      0.35%     61.47%
system.cpu.commit.op_class_0::IntDiv          7031501      3.18%     64.64%
system.cpu.commit.op_class_0::FloatAdd        1105073      0.50%     65.14%
system.cpu.commit.op_class_0::FloatCmp              0      0.00%     65.14%
system.cpu.commit.op_class_0::FloatCvt              0      0.00%     65.14%
system.cpu.commit.op_class_0::FloatMult             0      0.00%     65.14%
system.cpu.commit.op_class_0::FloatMultAcc            0      0.00%     65.14%
system.cpu.commit.op_class_0::FloatDiv              0      0.00%     65.14%
system.cpu.commit.op_class_0::FloatMisc             0      0.00%     65.14%
system.cpu.commit.op_class_0::FloatSqrt             0      0.00%     65.14%
system.cpu.commit.op_class_0::SimdAdd               0      0.00%     65.14%
system.cpu.commit.op_class_0::SimdAddAcc            0      0.00%     65.14%
system.cpu.commit.op_class_0::SimdAlu               0      0.00%     65.14%
system.cpu.commit.op_class_0::SimdCmp               0      0.00%     65.14%
system.cpu.commit.op_class_0::SimdCvt               0      0.00%     65.14%
system.cpu.commit.op_class_0::SimdMisc              0      0.00%     65.14%
system.cpu.commit.op_class_0::SimdMult              0      0.00%     65.14%
system.cpu.commit.op_class_0::SimdMultAcc            0      0.00%     65.14%
system.cpu.commit.op_class_0::SimdShift             0      0.00%     65.14%
system.cpu.commit.op_class_0::SimdShiftAcc            0      0.00%     65.14%
system.cpu.commit.op_class_0::SimdSqrt              0      0.00%     65.14%
system.cpu.commit.op_class_0::SimdFloatAdd            0      0.00%     65.14%
system.cpu.commit.op_class_0::SimdFloatAlu            0      0.00%     65.14%
system.cpu.commit.op_class_0::SimdFloatCmp            0      0.00%     65.14%
system.cpu.commit.op_class_0::SimdFloatCvt            0      0.00%     65.14%
system.cpu.commit.op_class_0::SimdFloatDiv            0      0.00%     65.14%
system.cpu.commit.op_class_0::SimdFloatMisc            0      0.00%     65.14%
system.cpu.commit.op_class_0::SimdFloatMult            0      0.00%     65.14%
system.cpu.commit.op_class_0::SimdFloatMultAcc            0      0.00%     65.14%
system.cpu.commit.op_class_0::SimdFloatSqrt            0      0.00%     65.14%
system.cpu.commit.op_class_0::MemRead        55945136     25.27%     90.41%
system.cpu.commit.op_class_0::MemWrite       20410230      9.22%     99.63%
system.cpu.commit.op_class_0::FloatMemRead       704451      0.32%     99.95%
system.cpu.commit.op_class_0::FloatMemWrite       105487      0.05%    100.00%
system.cpu.commit.op_class_0::IprAccess             0      0.00%    100.00%
system.cpu.commit.op_class_0::InstPrefetch            0      0.00%    100.00%
system.cpu.commit.op_class_0::total         221363384                      
system.cpu.commit.bw_lim_events               6989165                      
system.cpu.rob.rob_reads                    643088333                      
system.cpu.rob.rob_writes                  1015902505                      
system.cpu.timesIdled                            2802                      
system.cpu.idleCycles                          238689                      
system.cpu.committedInsts                   132071192                      
system.cpu.committedOps                     221363384                      
system.cpu.cpi                               1.555526                      
system.cpu.cpi_total                         1.555526                      
system.cpu.ipc                               0.642869                      
system.cpu.ipc_total                         0.642869                      
system.cpu.int_regfile_reads                522853545                      
system.cpu.int_regfile_writes               287693923                      
system.cpu.fp_regfile_reads                   4488277                      
system.cpu.fp_regfile_writes                  3288210                      
system.cpu.cc_regfile_reads                 106934925                      
system.cpu.cc_regfile_writes                 65654580                      
system.cpu.misc_regfile_reads               175824659                      
system.cpu.misc_regfile_writes                   1689                      
system.cpu.dcache.tags.pwrStateResidencyTicks::UNDEFINED 102720088500                      
system.cpu.dcache.tags.replacements                62                      
system.cpu.dcache.tags.tagsinuse          1518.622789                      
system.cpu.dcache.tags.total_refs            82373091                      
system.cpu.dcache.tags.sampled_refs              2122                      
system.cpu.dcache.tags.avg_refs          38818.610273                      
system.cpu.dcache.tags.warmup_cycle                 0                      
system.cpu.dcache.tags.occ_blocks::cpu.data  1518.622789                      
system.cpu.dcache.tags.occ_percent::cpu.data     0.370758                      
system.cpu.dcache.tags.occ_percent::total     0.370758                      
system.cpu.dcache.tags.occ_task_id_blocks::1024         2060                      
system.cpu.dcache.tags.age_task_id_blocks_1024::0           15                      
system.cpu.dcache.tags.age_task_id_blocks_1024::1           30                      
system.cpu.dcache.tags.age_task_id_blocks_1024::2           94                      
system.cpu.dcache.tags.age_task_id_blocks_1024::3          426                      
system.cpu.dcache.tags.age_task_id_blocks_1024::4         1495                      
system.cpu.dcache.tags.occ_task_id_percent::1024     0.502930                      
system.cpu.dcache.tags.tag_accesses         164753648                      
system.cpu.dcache.tags.data_accesses        164753648                      
system.cpu.dcache.pwrStateResidencyTicks::UNDEFINED 102720088500                      
system.cpu.dcache.ReadReq_hits::cpu.data     61858770                      
system.cpu.dcache.ReadReq_hits::total        61858770                      
system.cpu.dcache.WriteReq_hits::cpu.data     20513717                      
system.cpu.dcache.WriteReq_hits::total       20513717                      
system.cpu.dcache.demand_hits::cpu.data      82372487                      
system.cpu.dcache.demand_hits::total         82372487                      
system.cpu.dcache.overall_hits::cpu.data     82372487                      
system.cpu.dcache.overall_hits::total        82372487                      
system.cpu.dcache.ReadReq_misses::cpu.data         1262                      
system.cpu.dcache.ReadReq_misses::total          1262                      
system.cpu.dcache.WriteReq_misses::cpu.data         2014                      
system.cpu.dcache.WriteReq_misses::total         2014                      
system.cpu.dcache.demand_misses::cpu.data         3276                      
system.cpu.dcache.demand_misses::total           3276                      
system.cpu.dcache.overall_misses::cpu.data         3276                      
system.cpu.dcache.overall_misses::total          3276                      
system.cpu.dcache.ReadReq_miss_latency::cpu.data    127973000                      
system.cpu.dcache.ReadReq_miss_latency::total    127973000                      
system.cpu.dcache.WriteReq_miss_latency::cpu.data    138062500                      
system.cpu.dcache.WriteReq_miss_latency::total    138062500                      
system.cpu.dcache.demand_miss_latency::cpu.data    266035500                      
system.cpu.dcache.demand_miss_latency::total    266035500                      
system.cpu.dcache.overall_miss_latency::cpu.data    266035500                      
system.cpu.dcache.overall_miss_latency::total    266035500                      
system.cpu.dcache.ReadReq_accesses::cpu.data     61860032                      
system.cpu.dcache.ReadReq_accesses::total     61860032                      
system.cpu.dcache.WriteReq_accesses::cpu.data     20515731                      
system.cpu.dcache.WriteReq_accesses::total     20515731                      
system.cpu.dcache.demand_accesses::cpu.data     82375763                      
system.cpu.dcache.demand_accesses::total     82375763                      
system.cpu.dcache.overall_accesses::cpu.data     82375763                      
system.cpu.dcache.overall_accesses::total     82375763                      
system.cpu.dcache.ReadReq_miss_rate::cpu.data     0.000020                      
system.cpu.dcache.ReadReq_miss_rate::total     0.000020                      
system.cpu.dcache.WriteReq_miss_rate::cpu.data     0.000098                      
system.cpu.dcache.WriteReq_miss_rate::total     0.000098                      
system.cpu.dcache.demand_miss_rate::cpu.data     0.000040                      
system.cpu.dcache.demand_miss_rate::total     0.000040                      
system.cpu.dcache.overall_miss_rate::cpu.data     0.000040                      
system.cpu.dcache.overall_miss_rate::total     0.000040                      
system.cpu.dcache.ReadReq_avg_miss_latency::cpu.data 101404.912837                      
system.cpu.dcache.ReadReq_avg_miss_latency::total 101404.912837                      
system.cpu.dcache.WriteReq_avg_miss_latency::cpu.data 68551.390268                      
system.cpu.dcache.WriteReq_avg_miss_latency::total 68551.390268                      
system.cpu.dcache.demand_avg_miss_latency::cpu.data 81207.417582                      
system.cpu.dcache.demand_avg_miss_latency::total 81207.417582                      
system.cpu.dcache.overall_avg_miss_latency::cpu.data 81207.417582                      
system.cpu.dcache.overall_avg_miss_latency::total 81207.417582                      
system.cpu.dcache.blocked_cycles::no_mshrs          635                      
system.cpu.dcache.blocked_cycles::no_targets           58                      
system.cpu.dcache.blocked::no_mshrs                 5                      
system.cpu.dcache.blocked::no_targets               1                      
system.cpu.dcache.avg_blocked_cycles::no_mshrs          127                      
system.cpu.dcache.avg_blocked_cycles::no_targets           58                      
system.cpu.dcache.writebacks::writebacks           22                      
system.cpu.dcache.writebacks::total                22                      
system.cpu.dcache.ReadReq_mshr_hits::cpu.data          653                      
system.cpu.dcache.ReadReq_mshr_hits::total          653                      
system.cpu.dcache.WriteReq_mshr_hits::cpu.data           11                      
system.cpu.dcache.WriteReq_mshr_hits::total           11                      
system.cpu.dcache.demand_mshr_hits::cpu.data          664                      
system.cpu.dcache.demand_mshr_hits::total          664                      
system.cpu.dcache.overall_mshr_hits::cpu.data          664                      
system.cpu.dcache.overall_mshr_hits::total          664                      
system.cpu.dcache.ReadReq_mshr_misses::cpu.data          609                      
system.cpu.dcache.ReadReq_mshr_misses::total          609                      
system.cpu.dcache.WriteReq_mshr_misses::cpu.data         2003                      
system.cpu.dcache.WriteReq_mshr_misses::total         2003                      
system.cpu.dcache.demand_mshr_misses::cpu.data         2612                      
system.cpu.dcache.demand_mshr_misses::total         2612                      
system.cpu.dcache.overall_mshr_misses::cpu.data         2612                      
system.cpu.dcache.overall_mshr_misses::total         2612                      
system.cpu.dcache.ReadReq_mshr_miss_latency::cpu.data     78734500                      
system.cpu.dcache.ReadReq_mshr_miss_latency::total     78734500                      
system.cpu.dcache.WriteReq_mshr_miss_latency::cpu.data    135473000                      
system.cpu.dcache.WriteReq_mshr_miss_latency::total    135473000                      
system.cpu.dcache.demand_mshr_miss_latency::cpu.data    214207500                      
system.cpu.dcache.demand_mshr_miss_latency::total    214207500                      
system.cpu.dcache.overall_mshr_miss_latency::cpu.data    214207500                      
system.cpu.dcache.overall_mshr_miss_latency::total    214207500                      
system.cpu.dcache.ReadReq_mshr_miss_rate::cpu.data     0.000010                      
system.cpu.dcache.ReadReq_mshr_miss_rate::total     0.000010                      
system.cpu.dcache.WriteReq_mshr_miss_rate::cpu.data     0.000098                      
system.cpu.dcache.WriteReq_mshr_miss_rate::total     0.000098                      
system.cpu.dcache.demand_mshr_miss_rate::cpu.data     0.000032                      
system.cpu.dcache.demand_mshr_miss_rate::total     0.000032                      
system.cpu.dcache.overall_mshr_miss_rate::cpu.data     0.000032                      
system.cpu.dcache.overall_mshr_miss_rate::total     0.000032                      
system.cpu.dcache.ReadReq_avg_mshr_miss_latency::cpu.data 129284.893268                      
system.cpu.dcache.ReadReq_avg_mshr_miss_latency::total 129284.893268                      
system.cpu.dcache.WriteReq_avg_mshr_miss_latency::cpu.data 67635.047429                      
system.cpu.dcache.WriteReq_avg_mshr_miss_latency::total 67635.047429                      
system.cpu.dcache.demand_avg_mshr_miss_latency::cpu.data 82008.996937                      
system.cpu.dcache.demand_avg_mshr_miss_latency::total 82008.996937                      
system.cpu.dcache.overall_avg_mshr_miss_latency::cpu.data 82008.996937                      
system.cpu.dcache.overall_avg_mshr_miss_latency::total 82008.996937                      
system.cpu.icache.tags.pwrStateResidencyTicks::UNDEFINED 102720088500                      
system.cpu.icache.tags.replacements              6438                      
system.cpu.icache.tags.tagsinuse          1691.819793                      
system.cpu.icache.tags.total_refs            40880550                      
system.cpu.icache.tags.sampled_refs              8435                      
system.cpu.icache.tags.avg_refs           4846.538234                      
system.cpu.icache.tags.warmup_cycle                 0                      
system.cpu.icache.tags.occ_blocks::cpu.inst  1691.819793                      
system.cpu.icache.tags.occ_percent::cpu.inst     0.826084                      
system.cpu.icache.tags.occ_percent::total     0.826084                      
system.cpu.icache.tags.occ_task_id_blocks::1024         1997                      
system.cpu.icache.tags.age_task_id_blocks_1024::0           99                      
system.cpu.icache.tags.age_task_id_blocks_1024::1          165                      
system.cpu.icache.tags.age_task_id_blocks_1024::2          849                      
system.cpu.icache.tags.age_task_id_blocks_1024::3          153                      
system.cpu.icache.tags.age_task_id_blocks_1024::4          731                      
system.cpu.icache.tags.occ_task_id_percent::1024     0.975098                      
system.cpu.icache.tags.tag_accesses          81796128                      
system.cpu.icache.tags.data_accesses         81796128                      
system.cpu.icache.pwrStateResidencyTicks::UNDEFINED 102720088500                      
system.cpu.icache.ReadReq_hits::cpu.inst     40880551                      
system.cpu.icache.ReadReq_hits::total        40880551                      
system.cpu.icache.demand_hits::cpu.inst      40880551                      
system.cpu.icache.demand_hits::total         40880551                      
system.cpu.icache.overall_hits::cpu.inst     40880551                      
system.cpu.icache.overall_hits::total        40880551                      
system.cpu.icache.ReadReq_misses::cpu.inst        13051                      
system.cpu.icache.ReadReq_misses::total         13051                      
system.cpu.icache.demand_misses::cpu.inst        13051                      
system.cpu.icache.demand_misses::total          13051                      
system.cpu.icache.overall_misses::cpu.inst        13051                      
system.cpu.icache.overall_misses::total         13051                      
system.cpu.icache.ReadReq_miss_latency::cpu.inst    645910000                      
system.cpu.icache.ReadReq_miss_latency::total    645910000                      
system.cpu.icache.demand_miss_latency::cpu.inst    645910000                      
system.cpu.icache.demand_miss_latency::total    645910000                      
system.cpu.icache.overall_miss_latency::cpu.inst    645910000                      
system.cpu.icache.overall_miss_latency::total    645910000                      
system.cpu.icache.ReadReq_accesses::cpu.inst     40893602                      
system.cpu.icache.ReadReq_accesses::total     40893602                      
system.cpu.icache.demand_accesses::cpu.inst     40893602                      
system.cpu.icache.demand_accesses::total     40893602                      
system.cpu.icache.overall_accesses::cpu.inst     40893602                      
system.cpu.icache.overall_accesses::total     40893602                      
system.cpu.icache.ReadReq_miss_rate::cpu.inst     0.000319                      
system.cpu.icache.ReadReq_miss_rate::total     0.000319                      
system.cpu.icache.demand_miss_rate::cpu.inst     0.000319                      
system.cpu.icache.demand_miss_rate::total     0.000319                      
system.cpu.icache.overall_miss_rate::cpu.inst     0.000319                      
system.cpu.icache.overall_miss_rate::total     0.000319                      
system.cpu.icache.ReadReq_avg_miss_latency::cpu.inst 49491.226726                      
system.cpu.icache.ReadReq_avg_miss_latency::total 49491.226726                      
system.cpu.icache.demand_avg_miss_latency::cpu.inst 49491.226726                      
system.cpu.icache.demand_avg_miss_latency::total 49491.226726                      
system.cpu.icache.overall_avg_miss_latency::cpu.inst 49491.226726                      
system.cpu.icache.overall_avg_miss_latency::total 49491.226726                      
system.cpu.icache.blocked_cycles::no_mshrs         2923                      
system.cpu.icache.blocked_cycles::no_targets            0                      
system.cpu.icache.blocked::no_mshrs                38                      
system.cpu.icache.blocked::no_targets               0                      
system.cpu.icache.avg_blocked_cycles::no_mshrs    76.921053                      
system.cpu.icache.avg_blocked_cycles::no_targets          nan                      
system.cpu.icache.writebacks::writebacks         6438                      
system.cpu.icache.writebacks::total              6438                      
system.cpu.icache.ReadReq_mshr_hits::cpu.inst         4126                      
system.cpu.icache.ReadReq_mshr_hits::total         4126                      
system.cpu.icache.demand_mshr_hits::cpu.inst         4126                      
system.cpu.icache.demand_mshr_hits::total         4126                      
system.cpu.icache.overall_mshr_hits::cpu.inst         4126                      
system.cpu.icache.overall_mshr_hits::total         4126                      
system.cpu.icache.ReadReq_mshr_misses::cpu.inst         8925                      
system.cpu.icache.ReadReq_mshr_misses::total         8925                      
system.cpu.icache.demand_mshr_misses::cpu.inst         8925                      
system.cpu.icache.demand_mshr_misses::total         8925                      
system.cpu.icache.overall_mshr_misses::cpu.inst         8925                      
system.cpu.icache.overall_mshr_misses::total         8925                      
system.cpu.icache.ReadReq_mshr_miss_latency::cpu.inst    456195500                      
system.cpu.icache.ReadReq_mshr_miss_latency::total    456195500                      
system.cpu.icache.demand_mshr_miss_latency::cpu.inst    456195500                      
system.cpu.icache.demand_mshr_miss_latency::total    456195500                      
system.cpu.icache.overall_mshr_miss_latency::cpu.inst    456195500                      
system.cpu.icache.overall_mshr_miss_latency::total    456195500                      
system.cpu.icache.ReadReq_mshr_miss_rate::cpu.inst     0.000218                      
system.cpu.icache.ReadReq_mshr_miss_rate::total     0.000218                      
system.cpu.icache.demand_mshr_miss_rate::cpu.inst     0.000218                      
system.cpu.icache.demand_mshr_miss_rate::total     0.000218                      
system.cpu.icache.overall_mshr_miss_rate::cpu.inst     0.000218                      
system.cpu.icache.overall_mshr_miss_rate::total     0.000218                      
system.cpu.icache.ReadReq_avg_mshr_miss_latency::cpu.inst 51114.341737                      
system.cpu.icache.ReadReq_avg_mshr_miss_latency::total 51114.341737                      
system.cpu.icache.demand_avg_mshr_miss_latency::cpu.inst 51114.341737                      
system.cpu.icache.demand_avg_mshr_miss_latency::total 51114.341737                      
system.cpu.icache.overall_avg_mshr_miss_latency::cpu.inst 51114.341737                      
system.cpu.icache.overall_avg_mshr_miss_latency::total 51114.341737                      
system.cpu.l2cache.tags.pwrStateResidencyTicks::UNDEFINED 102720088500                      
system.cpu.l2cache.tags.replacements                0                      
system.cpu.l2cache.tags.tagsinuse         3919.914171                      
system.cpu.l2cache.tags.total_refs              11787                      
system.cpu.l2cache.tags.sampled_refs             5718                      
system.cpu.l2cache.tags.avg_refs             2.061385                      
system.cpu.l2cache.tags.warmup_cycle                0                      
system.cpu.l2cache.tags.occ_blocks::cpu.inst  2430.246024                      
system.cpu.l2cache.tags.occ_blocks::cpu.data  1489.668147                      
system.cpu.l2cache.tags.occ_percent::cpu.inst     0.074165                      
system.cpu.l2cache.tags.occ_percent::cpu.data     0.045461                      
system.cpu.l2cache.tags.occ_percent::total     0.119626                      
system.cpu.l2cache.tags.occ_task_id_blocks::1024         5718                      
system.cpu.l2cache.tags.age_task_id_blocks_1024::0           40                      
system.cpu.l2cache.tags.age_task_id_blocks_1024::1          176                      
system.cpu.l2cache.tags.age_task_id_blocks_1024::2         1011                      
system.cpu.l2cache.tags.age_task_id_blocks_1024::3          535                      
system.cpu.l2cache.tags.age_task_id_blocks_1024::4         3956                      
system.cpu.l2cache.tags.occ_task_id_percent::1024     0.174500                      
system.cpu.l2cache.tags.tag_accesses           145758                      
system.cpu.l2cache.tags.data_accesses          145758                      
system.cpu.l2cache.pwrStateResidencyTicks::UNDEFINED 102720088500                      
system.cpu.l2cache.WritebackDirty_hits::writebacks           22                      
system.cpu.l2cache.WritebackDirty_hits::total           22                      
system.cpu.l2cache.WritebackClean_hits::writebacks         6398                      
system.cpu.l2cache.WritebackClean_hits::total         6398                      
system.cpu.l2cache.UpgradeReq_hits::cpu.data          490                      
system.cpu.l2cache.UpgradeReq_hits::total          490                      
system.cpu.l2cache.ReadExReq_hits::cpu.data            8                      
system.cpu.l2cache.ReadExReq_hits::total            8                      
system.cpu.l2cache.ReadCleanReq_hits::cpu.inst         4761                      
system.cpu.l2cache.ReadCleanReq_hits::total         4761                      
system.cpu.l2cache.ReadSharedReq_hits::cpu.data           69                      
system.cpu.l2cache.ReadSharedReq_hits::total           69                      
system.cpu.l2cache.demand_hits::cpu.inst         4761                      
system.cpu.l2cache.demand_hits::cpu.data           77                      
system.cpu.l2cache.demand_hits::total            4838                      
system.cpu.l2cache.overall_hits::cpu.inst         4761                      
system.cpu.l2cache.overall_hits::cpu.data           77                      
system.cpu.l2cache.overall_hits::total           4838                      
system.cpu.l2cache.ReadExReq_misses::cpu.data         1507                      
system.cpu.l2cache.ReadExReq_misses::total         1507                      
system.cpu.l2cache.ReadCleanReq_misses::cpu.inst         3673                      
system.cpu.l2cache.ReadCleanReq_misses::total         3673                      
system.cpu.l2cache.ReadSharedReq_misses::cpu.data          538                      
system.cpu.l2cache.ReadSharedReq_misses::total          538                      
system.cpu.l2cache.demand_misses::cpu.inst         3673                      
system.cpu.l2cache.demand_misses::cpu.data         2045                      
system.cpu.l2cache.demand_misses::total          5718                      
system.cpu.l2cache.overall_misses::cpu.inst         3673                      
system.cpu.l2cache.overall_misses::cpu.data         2045                      
system.cpu.l2cache.overall_misses::total         5718                      
system.cpu.l2cache.ReadExReq_miss_latency::cpu.data    126901500                      
system.cpu.l2cache.ReadExReq_miss_latency::total    126901500                      
system.cpu.l2cache.ReadCleanReq_miss_latency::cpu.inst    391879000                      
system.cpu.l2cache.ReadCleanReq_miss_latency::total    391879000                      
system.cpu.l2cache.ReadSharedReq_miss_latency::cpu.data     76877000                      
system.cpu.l2cache.ReadSharedReq_miss_latency::total     76877000                      
system.cpu.l2cache.demand_miss_latency::cpu.inst    391879000                      
system.cpu.l2cache.demand_miss_latency::cpu.data    203778500                      
system.cpu.l2cache.demand_miss_latency::total    595657500                      
system.cpu.l2cache.overall_miss_latency::cpu.inst    391879000                      
system.cpu.l2cache.overall_miss_latency::cpu.data    203778500                      
system.cpu.l2cache.overall_miss_latency::total    595657500                      
system.cpu.l2cache.WritebackDirty_accesses::writebacks           22                      
system.cpu.l2cache.WritebackDirty_accesses::total           22                      
system.cpu.l2cache.WritebackClean_accesses::writebacks         6398                      
system.cpu.l2cache.WritebackClean_accesses::total         6398                      
system.cpu.l2cache.UpgradeReq_accesses::cpu.data          490                      
system.cpu.l2cache.UpgradeReq_accesses::total          490                      
system.cpu.l2cache.ReadExReq_accesses::cpu.data         1515                      
system.cpu.l2cache.ReadExReq_accesses::total         1515                      
system.cpu.l2cache.ReadCleanReq_accesses::cpu.inst         8434                      
system.cpu.l2cache.ReadCleanReq_accesses::total         8434                      
system.cpu.l2cache.ReadSharedReq_accesses::cpu.data          607                      
system.cpu.l2cache.ReadSharedReq_accesses::total          607                      
system.cpu.l2cache.demand_accesses::cpu.inst         8434                      
system.cpu.l2cache.demand_accesses::cpu.data         2122                      
system.cpu.l2cache.demand_accesses::total        10556                      
system.cpu.l2cache.overall_accesses::cpu.inst         8434                      
system.cpu.l2cache.overall_accesses::cpu.data         2122                      
system.cpu.l2cache.overall_accesses::total        10556                      
system.cpu.l2cache.ReadExReq_miss_rate::cpu.data     0.994719                      
system.cpu.l2cache.ReadExReq_miss_rate::total     0.994719                      
system.cpu.l2cache.ReadCleanReq_miss_rate::cpu.inst     0.435499                      
system.cpu.l2cache.ReadCleanReq_miss_rate::total     0.435499                      
system.cpu.l2cache.ReadSharedReq_miss_rate::cpu.data     0.886326                      
system.cpu.l2cache.ReadSharedReq_miss_rate::total     0.886326                      
system.cpu.l2cache.demand_miss_rate::cpu.inst     0.435499                      
system.cpu.l2cache.demand_miss_rate::cpu.data     0.963713                      
system.cpu.l2cache.demand_miss_rate::total     0.541682                      
system.cpu.l2cache.overall_miss_rate::cpu.inst     0.435499                      
system.cpu.l2cache.overall_miss_rate::cpu.data     0.963713                      
system.cpu.l2cache.overall_miss_rate::total     0.541682                      
system.cpu.l2cache.ReadExReq_avg_miss_latency::cpu.data 84208.029197                      
system.cpu.l2cache.ReadExReq_avg_miss_latency::total 84208.029197                      
system.cpu.l2cache.ReadCleanReq_avg_miss_latency::cpu.inst 106691.805064                      
system.cpu.l2cache.ReadCleanReq_avg_miss_latency::total 106691.805064                      
system.cpu.l2cache.ReadSharedReq_avg_miss_latency::cpu.data 142894.052045                      
system.cpu.l2cache.ReadSharedReq_avg_miss_latency::total 142894.052045                      
system.cpu.l2cache.demand_avg_miss_latency::cpu.inst 106691.805064                      
system.cpu.l2cache.demand_avg_miss_latency::cpu.data 99647.188264                      
system.cpu.l2cache.demand_avg_miss_latency::total 104172.350472                      
system.cpu.l2cache.overall_avg_miss_latency::cpu.inst 106691.805064                      
system.cpu.l2cache.overall_avg_miss_latency::cpu.data 99647.188264                      
system.cpu.l2cache.overall_avg_miss_latency::total 104172.350472                      
system.cpu.l2cache.blocked_cycles::no_mshrs            0                      
system.cpu.l2cache.blocked_cycles::no_targets            0                      
system.cpu.l2cache.blocked::no_mshrs                0                      
system.cpu.l2cache.blocked::no_targets              0                      
system.cpu.l2cache.avg_blocked_cycles::no_mshrs          nan                      
system.cpu.l2cache.avg_blocked_cycles::no_targets          nan                      
system.cpu.l2cache.ReadExReq_mshr_misses::cpu.data         1507                      
system.cpu.l2cache.ReadExReq_mshr_misses::total         1507                      
system.cpu.l2cache.ReadCleanReq_mshr_misses::cpu.inst         3673                      
system.cpu.l2cache.ReadCleanReq_mshr_misses::total         3673                      
system.cpu.l2cache.ReadSharedReq_mshr_misses::cpu.data          538                      
system.cpu.l2cache.ReadSharedReq_mshr_misses::total          538                      
system.cpu.l2cache.demand_mshr_misses::cpu.inst         3673                      
system.cpu.l2cache.demand_mshr_misses::cpu.data         2045                      
system.cpu.l2cache.demand_mshr_misses::total         5718                      
system.cpu.l2cache.overall_mshr_misses::cpu.inst         3673                      
system.cpu.l2cache.overall_mshr_misses::cpu.data         2045                      
system.cpu.l2cache.overall_mshr_misses::total         5718                      
system.cpu.l2cache.ReadExReq_mshr_miss_latency::cpu.data    111831500                      
system.cpu.l2cache.ReadExReq_mshr_miss_latency::total    111831500                      
system.cpu.l2cache.ReadCleanReq_mshr_miss_latency::cpu.inst    355149000                      
system.cpu.l2cache.ReadCleanReq_mshr_miss_latency::total    355149000                      
system.cpu.l2cache.ReadSharedReq_mshr_miss_latency::cpu.data     71497000                      
system.cpu.l2cache.ReadSharedReq_mshr_miss_latency::total     71497000                      
system.cpu.l2cache.demand_mshr_miss_latency::cpu.inst    355149000                      
system.cpu.l2cache.demand_mshr_miss_latency::cpu.data    183328500                      
system.cpu.l2cache.demand_mshr_miss_latency::total    538477500                      
system.cpu.l2cache.overall_mshr_miss_latency::cpu.inst    355149000                      
system.cpu.l2cache.overall_mshr_miss_latency::cpu.data    183328500                      
system.cpu.l2cache.overall_mshr_miss_latency::total    538477500                      
system.cpu.l2cache.ReadExReq_mshr_miss_rate::cpu.data     0.994719                      
system.cpu.l2cache.ReadExReq_mshr_miss_rate::total     0.994719                      
system.cpu.l2cache.ReadCleanReq_mshr_miss_rate::cpu.inst     0.435499                      
system.cpu.l2cache.ReadCleanReq_mshr_miss_rate::total     0.435499                      
system.cpu.l2cache.ReadSharedReq_mshr_miss_rate::cpu.data     0.886326                      
system.cpu.l2cache.ReadSharedReq_mshr_miss_rate::total     0.886326                      
system.cpu.l2cache.demand_mshr_miss_rate::cpu.inst     0.435499                      
system.cpu.l2cache.demand_mshr_miss_rate::cpu.data     0.963713                      
system.cpu.l2cache.demand_mshr_miss_rate::total     0.541682                      
system.cpu.l2cache.overall_mshr_miss_rate::cpu.inst     0.435499                      
system.cpu.l2cache.overall_mshr_miss_rate::cpu.data     0.963713                      
system.cpu.l2cache.overall_mshr_miss_rate::total     0.541682                      
system.cpu.l2cache.ReadExReq_avg_mshr_miss_latency::cpu.data 74208.029197                      
system.cpu.l2cache.ReadExReq_avg_mshr_miss_latency::total 74208.029197                      
system.cpu.l2cache.ReadCleanReq_avg_mshr_miss_latency::cpu.inst 96691.805064                      
system.cpu.l2cache.ReadCleanReq_avg_mshr_miss_latency::total 96691.805064                      
system.cpu.l2cache.ReadSharedReq_avg_mshr_miss_latency::cpu.data 132894.052045                      
system.cpu.l2cache.ReadSharedReq_avg_mshr_miss_latency::total 132894.052045                      
system.cpu.l2cache.demand_avg_mshr_miss_latency::cpu.inst 96691.805064                      
system.cpu.l2cache.demand_avg_mshr_miss_latency::cpu.data 89647.188264                      
system.cpu.l2cache.demand_avg_mshr_miss_latency::total 94172.350472                      
system.cpu.l2cache.overall_avg_mshr_miss_latency::cpu.inst 96691.805064                      
system.cpu.l2cache.overall_avg_mshr_miss_latency::cpu.data 89647.188264                      
system.cpu.l2cache.overall_avg_mshr_miss_latency::total 94172.350472                      
system.cpu.toL2Bus.snoop_filter.tot_requests        18037                      
system.cpu.toL2Bus.snoop_filter.hit_single_requests         6582                      
system.cpu.toL2Bus.snoop_filter.hit_multi_requests          979                      
system.cpu.toL2Bus.snoop_filter.tot_snoops            0                      
system.cpu.toL2Bus.snoop_filter.hit_single_snoops            0                      
system.cpu.toL2Bus.snoop_filter.hit_multi_snoops            0                      
system.cpu.toL2Bus.pwrStateResidencyTicks::UNDEFINED 102720088500                      
system.cpu.toL2Bus.trans_dist::ReadResp          9531                      
system.cpu.toL2Bus.trans_dist::WritebackDirty           22                      
system.cpu.toL2Bus.trans_dist::WritebackClean         6438                      
system.cpu.toL2Bus.trans_dist::CleanEvict           40                      
system.cpu.toL2Bus.trans_dist::UpgradeReq          490                      
system.cpu.toL2Bus.trans_dist::UpgradeResp          490                      
system.cpu.toL2Bus.trans_dist::ReadExReq         1515                      
system.cpu.toL2Bus.trans_dist::ReadExResp         1515                      
system.cpu.toL2Bus.trans_dist::ReadCleanReq         8925                      
system.cpu.toL2Bus.trans_dist::ReadSharedReq          607                      
system.cpu.toL2Bus.pkt_count_system.cpu.icache.mem_side::system.cpu.l2cache.cpu_side        23796                      
system.cpu.toL2Bus.pkt_count_system.cpu.dcache.mem_side::system.cpu.l2cache.cpu_side         5286                      
system.cpu.toL2Bus.pkt_count::total             29082                      
system.cpu.toL2Bus.pkt_size_system.cpu.icache.mem_side::system.cpu.l2cache.cpu_side       951744                      
system.cpu.toL2Bus.pkt_size_system.cpu.dcache.mem_side::system.cpu.l2cache.cpu_side       137216                      
system.cpu.toL2Bus.pkt_size::total            1088960                      
system.cpu.toL2Bus.snoops                         491                      
system.cpu.toL2Bus.snoopTraffic                 31424                      
system.cpu.toL2Bus.snoop_fanout::samples        11537                      
system.cpu.toL2Bus.snoop_fanout::mean        0.091878                      
system.cpu.toL2Bus.snoop_fanout::stdev       0.288867                      
system.cpu.toL2Bus.snoop_fanout::underflows            0      0.00%      0.00%
system.cpu.toL2Bus.snoop_fanout::0              10477     90.81%     90.81%
system.cpu.toL2Bus.snoop_fanout::1               1060      9.19%    100.00%
system.cpu.toL2Bus.snoop_fanout::2                  0      0.00%    100.00%
system.cpu.toL2Bus.snoop_fanout::overflows            0      0.00%    100.00%
system.cpu.toL2Bus.snoop_fanout::min_value            0                      
system.cpu.toL2Bus.snoop_fanout::max_value            1                      
system.cpu.toL2Bus.snoop_fanout::total          11537                      
system.cpu.toL2Bus.reqLayer0.occupancy       15478500                      
system.cpu.toL2Bus.reqLayer0.utilization          0.0                      
system.cpu.toL2Bus.respLayer0.occupancy      13386000                      
system.cpu.toL2Bus.respLayer0.utilization          0.0                      
system.cpu.toL2Bus.respLayer1.occupancy       3428499                      
system.cpu.toL2Bus.respLayer1.utilization          0.0                      
system.membus.snoop_filter.tot_requests          5718                      
system.membus.snoop_filter.hit_single_requests            0                      
system.membus.snoop_filter.hit_multi_requests            0                      
system.membus.snoop_filter.tot_snoops               0                      
system.membus.snoop_filter.hit_single_snoops            0                      
system.membus.snoop_filter.hit_multi_snoops            0                      
system.membus.pwrStateResidencyTicks::UNDEFINED 102720088500                      
system.membus.trans_dist::ReadResp               4211                      
system.membus.trans_dist::ReadExReq              1507                      
system.membus.trans_dist::ReadExResp             1507                      
system.membus.trans_dist::ReadSharedReq          4211                      
system.membus.pkt_count_system.cpu.l2cache.mem_side::system.physmem.port        11436                      
system.membus.pkt_count_system.cpu.l2cache.mem_side::total        11436                      
system.membus.pkt_count::total                  11436                      
system.membus.pkt_size_system.cpu.l2cache.mem_side::system.physmem.port       365952                      
system.membus.pkt_size_system.cpu.l2cache.mem_side::total       365952                      
system.membus.pkt_size::total                  365952                      
system.membus.snoops                                0                      
system.membus.snoopTraffic                          0                      
system.membus.snoop_fanout::samples              5718                      
system.membus.snoop_fanout::mean                    0                      
system.membus.snoop_fanout::stdev                   0                      
system.membus.snoop_fanout::underflows              0      0.00%      0.00%
system.membus.snoop_fanout::0                    5718    100.00%    100.00%
system.membus.snoop_fanout::1                       0      0.00%    100.00%
system.membus.snoop_fanout::overflows               0      0.00%    100.00%
system.membus.snoop_fanout::min_value               0                      
system.membus.snoop_fanout::max_value               0                      
system.membus.snoop_fanout::total                5718                      
system.membus.reqLayer0.occupancy             6956000                      
system.membus.reqLayer0.utilization               0.0                      
system.membus.respLayer1.occupancy           30307000                      
system.membus.respLayer1.utilization              0.0                      

---------- End Simulation Statistics   ----------
