gem5 Simulator System.  http://gem5.org
gem5 is copyrighted software; use the --copyright option for details.

gem5 compiled Sep 24 2013 03:08:53
gem5 started Sep 28 2013 10:05:17
gem5 executing on zizzer
command line: build/ALPHA/gem5.opt -d build/ALPHA/tests/opt/long/se/60.bzip2/alpha/tru64/inorder-timing -re tests/run.py build/ALPHA/tests/opt/long/se/60.bzip2/alpha/tru64/inorder-timing
Global frequency set at 1000000000000 ticks per second
info: Entering event queue @ 0.  Starting simulation...
info: Increasing stack size by one page.
info: Increasing stack size by one page.
spec_init
Loading Input Data
Input data 1048576 bytes in length
Compressing Input Data, level 7
Compressed data 198546 bytes in length
Uncompressing Data
Uncompressed data 1048576 bytes in length
Uncompressed data compared correctly
Compressing Input Data, level 9
Compressed data 198677 bytes in length
Uncompressing Data
Uncompressed data 1048576 bytes in length
Uncompressed data compared correctly
Tested 1MB buffer: OK!
Exiting @ tick 1017016979500 because target called exit()
