McPAT (version 0.8 of Aug, 2010) is computing the target processor...
 

McPAT (version 0.8 of Aug, 2010) results  (current print level is 5)
*****************************************************************************************
  Technology 40 nm
  Using Long Channel Devices When Appropriate
  Interconnect metal projection = conservative interconnect technology projection
  Target Clock Rate (MHz) 1000

*****************************************************************************************
  System:
    Area = 84.1824 mm^2
    Peak Dynamic Power = 11.6434 W
    Subthreshold Leakage Power = 15.1353 W
    Gate Leakage Power = 1.28571 W
    Runtime Dynamic Power = 4.41833 W
    Runtime Dynamic Energy = 0.788376 J
    Total Runtime Energy = 3.71842 J

      Core 0:
        Area = 5.11302 mm^2
        Peak Dynamic Power = 0.725551 W
        Subthreshold Leakage Power = 0.910011 W
        Gate Leakage Power = 0.0793208 W
        Runtime Dynamic Power = 0.281158 W
        Runtime Dynamic Energy = 0.0501679 J
        Total Runtime Energy = 0.226697 J

          Instruction Fetch Unit:
            Area = 1.07061 mm^2
            Peak Dynamic Power = 0.069507 W
            Subthreshold Leakage Power = 0.0768543 W
            Gate Leakage Power = 0.00183262 W
            Runtime Dynamic Power = 0.0337409 W
            Runtime Dynamic Energy = 0.0060205 J
            Total Runtime Energy = 0.0200609 J

              Instruction Cache:
                Area = 1.06646 mm^2
                Peak Dynamic Power = 0.0345629 W
                Subthreshold Leakage Power = 0.0723979 W
                Gate Leakage Power = 0.00168831 W
                Runtime Dynamic Power = 0.0208483 W
                Runtime Dynamic Energy = 0.00372003 J
                Total Runtime Energy = 0.0169395 J

                  Data and Tag Arrays:
                    Area = 0.259164 mm^2
                    Peak Dynamic Power = 0 W
                    Subthreshold Leakage Power = 0.066312 W
                    Gate Leakage Power = 0.00138196 W
                    Runtime Dynamic Power = 0.0208377 W
                    Runtime Dynamic Energy = 0.00371814 J
                    Total Runtime Energy = 0.015797 J

                  Miss Buffer:
                    Area = 0.315209 mm^2
                    Peak Dynamic Power = 0.0124784 W
                    Subthreshold Leakage Power = 0.00218421 W
                    Gate Leakage Power = 0.000109941 W
                    Runtime Dynamic Power = 3.83741e-06 W
                    Runtime Dynamic Energy = 6.84722e-07 J
                    Total Runtime Energy = 0.000410038 J

                  Fill Buffer:
                    Area = 0.246043 mm^2
                    Peak Dynamic Power = 0.0110423 W
                    Subthreshold Leakage Power = 0.00195087 W
                    Gate Leakage Power = 9.82028e-05 W
                    Runtime Dynamic Power = 3.36583e-06 W
                    Runtime Dynamic Energy = 6.00575e-07 J
                    Total Runtime Energy = 0.000366223 J

                  Prefetch Buffer:
                    Area = 0.246043 mm^2
                    Peak Dynamic Power = 0.0110423 W
                    Subthreshold Leakage Power = 0.00195087 W
                    Gate Leakage Power = 9.82028e-05 W
                    Runtime Dynamic Power = 3.36583e-06 W
                    Runtime Dynamic Energy = 6.00575e-07 J
                    Total Runtime Energy = 0.000366223 J

              Instruction Buffer:
                Area = 0.00177465 mm^2
                Peak Dynamic Power = 0.00177346 W
                Subthreshold Leakage Power = 0.000334365 W
                Gate Leakage Power = 1.02451e-05 W
                Runtime Dynamic Power = 0.000654318 W
                Runtime Dynamic Energy = 0.000116752 J
                Total Runtime Energy = 0.000178242 J

              Instruction Opcode Decoder:
                Area = 0.000733115 mm^2
                Peak Dynamic Power = 0.0110556 W
                Subthreshold Leakage Power = 0.00127003 W
                Gate Leakage Power = 4.16647e-05 W
                Runtime Dynamic Power = 0.00407896 W
                Runtime Dynamic Energy = 0.000727822 J
                Total Runtime Energy = 0.000961873 J

              Instruction Operand Decoder:
                Area = 0.00018867 mm^2
                Peak Dynamic Power = 0.0110476 W
                Subthreshold Leakage Power = 0.00032028 W
                Gate Leakage Power = 1.08411e-05 W
                Runtime Dynamic Power = 0.00407601 W
                Runtime Dynamic Energy = 0.000727295 J
                Total Runtime Energy = 0.000786378 J

              Instruction Microcode Decoder:
                Area = 0.00144948 mm^2
                Peak Dynamic Power = 0.0110675 W
                Subthreshold Leakage Power = 0.00253168 W
                Gate Leakage Power = 8.15593e-05 W
                Runtime Dynamic Power = 0.00408335 W
                Runtime Dynamic Energy = 0.000728604 J
                Total Runtime Energy = 0.00119489 J

          Load/Store Unit:
            Area = 1.11574 mm^2
            Peak Dynamic Power = 0.0490235 W
            Subthreshold Leakage Power = 0.076641 W
            Gate Leakage Power = 0.00186238 W
            Runtime Dynamic Power = 0.00852776 W
            Runtime Dynamic Energy = 0.00152164 J
            Total Runtime Energy = 0.0155292 J

              Data Cache:
                Area = 1.06646 mm^2
                Peak Dynamic Power = 0.0345629 W
                Subthreshold Leakage Power = 0.0723979 W
                Gate Leakage Power = 0.00168831 W
                Runtime Dynamic Power = 0.00613901 W
                Runtime Dynamic Energy = 0.0010954 J
                Total Runtime Energy = 0.0143148 J

                  Data and Tag Arrays:
                    Area = 0.259164 mm^2
                    Peak Dynamic Power = 0 W
                    Subthreshold Leakage Power = 0.066312 W
                    Gate Leakage Power = 0.00138196 W
                    Runtime Dynamic Power = 0.00603346 W
                    Runtime Dynamic Energy = 0.00107657 J
                    Total Runtime Energy = 0.0131554 J

                  Miss Buffer:
                    Area = 0.315209 mm^2
                    Peak Dynamic Power = 0.0124784 W
                    Subthreshold Leakage Power = 0.00218421 W
                    Gate Leakage Power = 0.000109941 W
                    Runtime Dynamic Power = 3.90881e-05 W
                    Runtime Dynamic Energy = 6.97461e-06 J
                    Total Runtime Energy = 0.000416328 J

                  Fill Buffer:
                    Area = 0.246043 mm^2
                    Peak Dynamic Power = 0.0110423 W
                    Subthreshold Leakage Power = 0.00195087 W
                    Gate Leakage Power = 9.82028e-05 W
                    Runtime Dynamic Power = 3.42845e-05 W
                    Runtime Dynamic Energy = 6.11749e-06 J
                    Total Runtime Energy = 0.00037174 J

                  Prefetch Buffer:
                    Area = 0.246043 mm^2
                    Peak Dynamic Power = 0.0110423 W
                    Subthreshold Leakage Power = 0.00195087 W
                    Gate Leakage Power = 9.82028e-05 W
                    Runtime Dynamic Power = 3.2173e-05 W
                    Runtime Dynamic Energy = 5.74073e-06 J
                    Total Runtime Energy = 0.000371363 J

              Store Queue:
                Area = 0.0492795 mm^2
                Peak Dynamic Power = 0.0144605 W
                Subthreshold Leakage Power = 0.00424307 W
                Gate Leakage Power = 0.000174072 W
                Runtime Dynamic Power = 0.00238876 W
                Runtime Dynamic Energy = 0.000426233 J
                Total Runtime Energy = 0.0012144 J

          Memory Management Unit:
            Area = 0.0640137 mm^2
            Peak Dynamic Power = 0.020655 W
            Subthreshold Leakage Power = 0.0107524 W
            Gate Leakage Power = 0.00041319 W
            Runtime Dynamic Power = 0.00360033 W
            Runtime Dynamic Energy = 0.000642418 J
            Total Runtime Energy = 0.00263473 J

              Instruction TLB:
                Area = 0.0196043 mm^2
                Peak Dynamic Power = 0.00880588 W
                Subthreshold Leakage Power = 0.00418736 W
                Gate Leakage Power = 0.000171372 W
                Runtime Dynamic Power = 0.00288199 W
                Runtime Dynamic Energy = 0.000514242 J
                Total Runtime Energy = 0.00129198 J

              Data TLB:
                Area = 0.0444093 mm^2
                Peak Dynamic Power = 0.0118492 W
                Subthreshold Leakage Power = 0.00656505 W
                Gate Leakage Power = 0.000241817 W
                Runtime Dynamic Power = 0.000718344 W
                Runtime Dynamic Energy = 0.000128176 J
                Total Runtime Energy = 0.00134275 J

          Execution Unit:
            Area = 2.22898 mm^2
            Peak Dynamic Power = 0.586365 W
            Subthreshold Leakage Power = 0.497274 W
            Gate Leakage Power = 0.0497488 W
            Runtime Dynamic Power = 0.0519671 W
            Runtime Dynamic Energy = 0.00927266 J
            Total Runtime Energy = 0.10688 J

              Int Bypass Data:
                Area = 0.00171352 mm^2
                Peak Dynamic Power = 0 W
                Subthreshold Leakage Power = 0 W
                Gate Leakage Power = 0 W
                Runtime Dynamic Power = 9.8561e-09 W
                Runtime Dynamic Energy = 1.75865e-09 J
                Total Runtime Energy = 1.75865e-09 J

              Int Bypass Tag:
                Area = 0.00021419 mm^2
                Peak Dynamic Power = 0 W
                Subthreshold Leakage Power = 0 W
                Gate Leakage Power = 0 W
                Runtime Dynamic Power = 1.23201e-09 W
                Runtime Dynamic Energy = 2.19832e-10 J
                Total Runtime Energy = 2.19832e-10 J

              Mul Bypass Data:
                Area = 0.00383958 mm^2
                Peak Dynamic Power = 0 W
                Subthreshold Leakage Power = 0 W
                Gate Leakage Power = 0 W
                Runtime Dynamic Power = 3.15502e-09 W
                Runtime Dynamic Energy = 5.6296e-10 J
                Total Runtime Energy = 5.6296e-10 J

              Mul Bypass Tag:
                Area = 0.000319965 mm^2
                Peak Dynamic Power = 0 W
                Subthreshold Leakage Power = 0 W
                Gate Leakage Power = 0 W
                Runtime Dynamic Power = 2.62918e-10 W
                Runtime Dynamic Energy = 4.69133e-11 J
                Total Runtime Energy = 4.69133e-11 J

              FP Bypass Data:
                Area = 0.00547065 mm^2
                Peak Dynamic Power = 0 W
                Subthreshold Leakage Power = 0 W
                Gate Leakage Power = 0 W
                Runtime Dynamic Power = 8.99056e-09 W
                Runtime Dynamic Energy = 1.60421e-09 J
                Total Runtime Energy = 1.60421e-09 J

              FP Bypass Tag:
                Area = 0.00050165 mm^2
                Peak Dynamic Power = 0 W
                Subthreshold Leakage Power = 0 W
                Gate Leakage Power = 0 W
                Runtime Dynamic Power = 8.24421e-10 W
                Runtime Dynamic Energy = 1.47104e-10 J
                Total Runtime Energy = 1.47104e-10 J

              Register File Unit:
                Area = 0.0294128 mm^2
                Peak Dynamic Power = 0.0343622 W
                Subthreshold Leakage Power = 0.00191002 W
                Gate Leakage Power = 5.14853e-05 W
                Runtime Dynamic Power = 3.90833e-09 W
                Runtime Dynamic Energy = 6.97375e-10 J
                Total Runtime Energy = 0.000349999 J

                  Integer Register File:
                    Area = 0.0186223 mm^2
                    Peak Dynamic Power = 0.028914 W
                    Subthreshold Leakage Power = 0.000762251 W
                    Gate Leakage Power = 2.05735e-05 W
                    Runtime Dynamic Power = 3.08655e-09 W
                    Runtime Dynamic Energy = 5.50744e-10 J
                    Total Runtime Energy = 0.000139682 J

                  FP Register File:
                    Area = 0.0107906 mm^2
                    Peak Dynamic Power = 0.00544812 W
                    Subthreshold Leakage Power = 0.00114777 W
                    Gate Leakage Power = 3.09119e-05 W
                    Runtime Dynamic Power = 8.2177e-10 W
                    Runtime Dynamic Energy = 1.46631e-10 J
                    Total Runtime Energy = 0.000210317 J

              Integer ALU(s):
                Area = 0.138846 mm^2
                Peak Dynamic Power = 0.157715 W
                Subthreshold Leakage Power = 0.085206 W
                Gate Leakage Power = 0.00854828 W
                Runtime Dynamic Power = 0.0176582 W
                Runtime Dynamic Energy = 0.00315081 J
                Total Runtime Energy = 0.0198797 J

              Floating Point Unit(s):
                Area = 1.8404 mm^2
                Peak Dynamic Power = 0.236573 W
                Subthreshold Leakage Power = 0.282349 W
                Gate Leakage Power = 0.0283266 W
                Runtime Dynamic Power = 0.0343089 W
                Runtime Dynamic Energy = 0.00612184 J
                Total Runtime Energy = 0.0615567 J

              Multiply/Divide Unit(s):
                Area = 0.20827 mm^2
                Peak Dynamic Power = 0.157715 W
                Subthreshold Leakage Power = 0.127809 W
                Gate Leakage Power = 0.0128224 W
                Runtime Dynamic Power = 8.8389e-09 W
                Runtime Dynamic Energy = 1.57715e-09 J
                Total Runtime Energy = 0.0250933 J

          Undifferentiated Core:
            Area = 0.528329 mm^2
            Peak Dynamic Power = 0 W
            Subthreshold Leakage Power = 0.16211 W
            Gate Leakage Power = 0.0162637 W
            Runtime Dynamic Power = 0 W
            Runtime Dynamic Energy = 0 J
            Total Runtime Energy = 0.0318278 J

          Pipeline?:
            Area = 0.105346 mm^2
            Peak Dynamic Power = 0 W
            Subthreshold Leakage Power = 0.0863787 W
            Gate Leakage Power = 0.00920013 W
            Runtime Dynamic Power = 0.183322 W
            Runtime Dynamic Energy = 0.0327107 J
            Total Runtime Energy = 0.0497652 J

      Core 1:
        Area = 5.11302 mm^2
        Peak Dynamic Power = 0.725551 W
        Subthreshold Leakage Power = 0.910011 W
        Gate Leakage Power = 0.0793208 W
        Runtime Dynamic Power = 0.281397 W
        Runtime Dynamic Energy = 0.0502106 J
        Total Runtime Energy = 0.22674 J

          Instruction Fetch Unit:
            Area = 1.07061 mm^2
            Peak Dynamic Power = 0.069507 W
            Subthreshold Leakage Power = 0.0768543 W
            Gate Leakage Power = 0.00183262 W
            Runtime Dynamic Power = 0.0338089 W
            Runtime Dynamic Energy = 0.00603263 J
            Total Runtime Energy = 0.020073 J

              Instruction Cache:
                Area = 1.06646 mm^2
                Peak Dynamic Power = 0.0345629 W
                Subthreshold Leakage Power = 0.0723979 W
                Gate Leakage Power = 0.00168831 W
                Runtime Dynamic Power = 0.0208875 W
                Runtime Dynamic Energy = 0.00372702 J
                Total Runtime Energy = 0.0169465 J

                  Data and Tag Arrays:
                    Area = 0.259164 mm^2
                    Peak Dynamic Power = 0 W
                    Subthreshold Leakage Power = 0.066312 W
                    Gate Leakage Power = 0.00138196 W
                    Runtime Dynamic Power = 0.0208774 W
                    Runtime Dynamic Energy = 0.00372523 J
                    Total Runtime Energy = 0.0158041 J

                  Miss Buffer:
                    Area = 0.315209 mm^2
                    Peak Dynamic Power = 0.0124784 W
                    Subthreshold Leakage Power = 0.00218421 W
                    Gate Leakage Power = 0.000109941 W
                    Runtime Dynamic Power = 3.65645e-06 W
                    Runtime Dynamic Energy = 6.52432e-07 J
                    Total Runtime Energy = 0.000410006 J

                  Fill Buffer:
                    Area = 0.246043 mm^2
                    Peak Dynamic Power = 0.0110423 W
                    Subthreshold Leakage Power = 0.00195087 W
                    Gate Leakage Power = 9.82028e-05 W
                    Runtime Dynamic Power = 3.2071e-06 W
                    Runtime Dynamic Energy = 5.72253e-07 J
                    Total Runtime Energy = 0.000366195 J

                  Prefetch Buffer:
                    Area = 0.246043 mm^2
                    Peak Dynamic Power = 0.0110423 W
                    Subthreshold Leakage Power = 0.00195087 W
                    Gate Leakage Power = 9.82028e-05 W
                    Runtime Dynamic Power = 3.2071e-06 W
                    Runtime Dynamic Energy = 5.72253e-07 J
                    Total Runtime Energy = 0.000366195 J

              Instruction Buffer:
                Area = 0.00177465 mm^2
                Peak Dynamic Power = 0.00177346 W
                Subthreshold Leakage Power = 0.000334365 W
                Gate Leakage Power = 1.02451e-05 W
                Runtime Dynamic Power = 0.000655779 W
                Runtime Dynamic Energy = 0.000117013 J
                Total Runtime Energy = 0.000178503 J

              Instruction Opcode Decoder:
                Area = 0.000733115 mm^2
                Peak Dynamic Power = 0.0110556 W
                Subthreshold Leakage Power = 0.00127003 W
                Gate Leakage Power = 4.16647e-05 W
                Runtime Dynamic Power = 0.00408807 W
                Runtime Dynamic Energy = 0.000729448 J
                Total Runtime Energy = 0.000963498 J

              Instruction Operand Decoder:
                Area = 0.00018867 mm^2
                Peak Dynamic Power = 0.0110476 W
                Subthreshold Leakage Power = 0.00032028 W
                Gate Leakage Power = 1.08411e-05 W
                Runtime Dynamic Power = 0.00408511 W
                Runtime Dynamic Energy = 0.000728919 J
                Total Runtime Energy = 0.000788002 J

              Instruction Microcode Decoder:
                Area = 0.00144948 mm^2
                Peak Dynamic Power = 0.0110675 W
                Subthreshold Leakage Power = 0.00253168 W
                Gate Leakage Power = 8.15593e-05 W
                Runtime Dynamic Power = 0.00409247 W
                Runtime Dynamic Energy = 0.000730232 J
                Total Runtime Energy = 0.00119652 J

          Load/Store Unit:
            Area = 1.11574 mm^2
            Peak Dynamic Power = 0.0490235 W
            Subthreshold Leakage Power = 0.076641 W
            Gate Leakage Power = 0.00186238 W
            Runtime Dynamic Power = 0.00854078 W
            Runtime Dynamic Energy = 0.00152396 J
            Total Runtime Energy = 0.0155316 J

              Data Cache:
                Area = 1.06646 mm^2
                Peak Dynamic Power = 0.0345629 W
                Subthreshold Leakage Power = 0.0723979 W
                Gate Leakage Power = 0.00168831 W
                Runtime Dynamic Power = 0.00614896 W
                Runtime Dynamic Energy = 0.00109718 J
                Total Runtime Energy = 0.0143166 J

                  Data and Tag Arrays:
                    Area = 0.259164 mm^2
                    Peak Dynamic Power = 0 W
                    Subthreshold Leakage Power = 0.066312 W
                    Gate Leakage Power = 0.00138196 W
                    Runtime Dynamic Power = 0.00604289 W
                    Runtime Dynamic Energy = 0.00107825 J
                    Total Runtime Energy = 0.0131571 J

                  Miss Buffer:
                    Area = 0.315209 mm^2
                    Peak Dynamic Power = 0.0124784 W
                    Subthreshold Leakage Power = 0.00218421 W
                    Gate Leakage Power = 0.000109941 W
                    Runtime Dynamic Power = 3.93053e-05 W
                    Runtime Dynamic Energy = 7.01337e-06 J
                    Total Runtime Energy = 0.000416367 J

                  Fill Buffer:
                    Area = 0.246043 mm^2
                    Peak Dynamic Power = 0.0110423 W
                    Subthreshold Leakage Power = 0.00195087 W
                    Gate Leakage Power = 9.82028e-05 W
                    Runtime Dynamic Power = 3.4475e-05 W
                    Runtime Dynamic Energy = 6.15149e-06 J
                    Total Runtime Energy = 0.000371774 J

                  Prefetch Buffer:
                    Area = 0.246043 mm^2
                    Peak Dynamic Power = 0.0110423 W
                    Subthreshold Leakage Power = 0.00195087 W
                    Gate Leakage Power = 9.82028e-05 W
                    Runtime Dynamic Power = 3.22897e-05 W
                    Runtime Dynamic Energy = 5.76155e-06 J
                    Total Runtime Energy = 0.000371384 J

              Store Queue:
                Area = 0.0492795 mm^2
                Peak Dynamic Power = 0.0144605 W
                Subthreshold Leakage Power = 0.00424307 W
                Gate Leakage Power = 0.000174072 W
                Runtime Dynamic Power = 0.00239182 W
                Runtime Dynamic Energy = 0.00042678 J
                Total Runtime Energy = 0.00121494 J

          Memory Management Unit:
            Area = 0.0640137 mm^2
            Peak Dynamic Power = 0.020655 W
            Subthreshold Leakage Power = 0.0107524 W
            Gate Leakage Power = 0.00041319 W
            Runtime Dynamic Power = 0.00361571 W
            Runtime Dynamic Energy = 0.000645162 J
            Total Runtime Energy = 0.00263748 J

              Instruction TLB:
                Area = 0.0196043 mm^2
                Peak Dynamic Power = 0.00880588 W
                Subthreshold Leakage Power = 0.00418736 W
                Gate Leakage Power = 0.000171372 W
                Runtime Dynamic Power = 0.00289441 W
                Runtime Dynamic Energy = 0.000516458 J
                Total Runtime Energy = 0.0012942 J

              Data TLB:
                Area = 0.0444093 mm^2
                Peak Dynamic Power = 0.0118492 W
                Subthreshold Leakage Power = 0.00656505 W
                Gate Leakage Power = 0.000241817 W
                Runtime Dynamic Power = 0.000721303 W
                Runtime Dynamic Energy = 0.000128704 J
                Total Runtime Energy = 0.00134328 J

          Execution Unit:
            Area = 2.22898 mm^2
            Peak Dynamic Power = 0.586365 W
            Subthreshold Leakage Power = 0.497274 W
            Gate Leakage Power = 0.0497488 W
            Runtime Dynamic Power = 0.0521099 W
            Runtime Dynamic Energy = 0.00929814 J
            Total Runtime Energy = 0.106905 J

              Int Bypass Data:
                Area = 0.00171352 mm^2
                Peak Dynamic Power = 0 W
                Subthreshold Leakage Power = 0 W
                Gate Leakage Power = 0 W
                Runtime Dynamic Power = 9.8561e-09 W
                Runtime Dynamic Energy = 1.75865e-09 J
                Total Runtime Energy = 1.75865e-09 J

              Int Bypass Tag:
                Area = 0.00021419 mm^2
                Peak Dynamic Power = 0 W
                Subthreshold Leakage Power = 0 W
                Gate Leakage Power = 0 W
                Runtime Dynamic Power = 1.23201e-09 W
                Runtime Dynamic Energy = 2.19832e-10 J
                Total Runtime Energy = 2.19832e-10 J

              Mul Bypass Data:
                Area = 0.00383958 mm^2
                Peak Dynamic Power = 0 W
                Subthreshold Leakage Power = 0 W
                Gate Leakage Power = 0 W
                Runtime Dynamic Power = 3.15502e-09 W
                Runtime Dynamic Energy = 5.6296e-10 J
                Total Runtime Energy = 5.6296e-10 J

              Mul Bypass Tag:
                Area = 0.000319965 mm^2
                Peak Dynamic Power = 0 W
                Subthreshold Leakage Power = 0 W
                Gate Leakage Power = 0 W
                Runtime Dynamic Power = 2.62918e-10 W
                Runtime Dynamic Energy = 4.69133e-11 J
                Total Runtime Energy = 4.69133e-11 J

              FP Bypass Data:
                Area = 0.00547065 mm^2
                Peak Dynamic Power = 0 W
                Subthreshold Leakage Power = 0 W
                Gate Leakage Power = 0 W
                Runtime Dynamic Power = 8.99056e-09 W
                Runtime Dynamic Energy = 1.60421e-09 J
                Total Runtime Energy = 1.60421e-09 J

              FP Bypass Tag:
                Area = 0.00050165 mm^2
                Peak Dynamic Power = 0 W
                Subthreshold Leakage Power = 0 W
                Gate Leakage Power = 0 W
                Runtime Dynamic Power = 8.24421e-10 W
                Runtime Dynamic Energy = 1.47104e-10 J
                Total Runtime Energy = 1.47104e-10 J

              Register File Unit:
                Area = 0.0294128 mm^2
                Peak Dynamic Power = 0.0343622 W
                Subthreshold Leakage Power = 0.00191002 W
                Gate Leakage Power = 5.14853e-05 W
                Runtime Dynamic Power = 3.90833e-09 W
                Runtime Dynamic Energy = 6.97375e-10 J
                Total Runtime Energy = 0.000349999 J

                  Integer Register File:
                    Area = 0.0186223 mm^2
                    Peak Dynamic Power = 0.028914 W
                    Subthreshold Leakage Power = 0.000762251 W
                    Gate Leakage Power = 2.05735e-05 W
                    Runtime Dynamic Power = 3.08655e-09 W
                    Runtime Dynamic Energy = 5.50744e-10 J
                    Total Runtime Energy = 0.000139682 J

                  FP Register File:
                    Area = 0.0107906 mm^2
                    Peak Dynamic Power = 0.00544812 W
                    Subthreshold Leakage Power = 0.00114777 W
                    Gate Leakage Power = 3.09119e-05 W
                    Runtime Dynamic Power = 8.2177e-10 W
                    Runtime Dynamic Energy = 1.46631e-10 J
                    Total Runtime Energy = 0.000210317 J

              Integer ALU(s):
                Area = 0.138846 mm^2
                Peak Dynamic Power = 0.157715 W
                Subthreshold Leakage Power = 0.085206 W
                Gate Leakage Power = 0.00854828 W
                Runtime Dynamic Power = 0.0176843 W
                Runtime Dynamic Energy = 0.00315546 J
                Total Runtime Energy = 0.0198843 J

              Floating Point Unit(s):
                Area = 1.8404 mm^2
                Peak Dynamic Power = 0.236573 W
                Subthreshold Leakage Power = 0.282349 W
                Gate Leakage Power = 0.0283266 W
                Runtime Dynamic Power = 0.0344256 W
                Runtime Dynamic Energy = 0.00614267 J
                Total Runtime Energy = 0.0615775 J

              Multiply/Divide Unit(s):
                Area = 0.20827 mm^2
                Peak Dynamic Power = 0.157715 W
                Subthreshold Leakage Power = 0.127809 W
                Gate Leakage Power = 0.0128224 W
                Runtime Dynamic Power = 8.8389e-09 W
                Runtime Dynamic Energy = 1.57715e-09 J
                Total Runtime Energy = 0.0250933 J

          Undifferentiated Core:
            Area = 0.528329 mm^2
            Peak Dynamic Power = 0 W
            Subthreshold Leakage Power = 0.16211 W
            Gate Leakage Power = 0.0162637 W
            Runtime Dynamic Power = 0 W
            Runtime Dynamic Energy = 0 J
            Total Runtime Energy = 0.0318278 J

          Pipeline?:
            Area = 0.105346 mm^2
            Peak Dynamic Power = 0 W
            Subthreshold Leakage Power = 0.0863787 W
            Gate Leakage Power = 0.00920013 W
            Runtime Dynamic Power = 0.183322 W
            Runtime Dynamic Energy = 0.0327107 J
            Total Runtime Energy = 0.0497652 J

      Core 2:
        Area = 5.11302 mm^2
        Peak Dynamic Power = 0.725551 W
        Subthreshold Leakage Power = 0.910011 W
        Gate Leakage Power = 0.0793208 W
        Runtime Dynamic Power = 0.37873 W
        Runtime Dynamic Energy = 0.0675781 J
        Total Runtime Energy = 0.244108 J

          Instruction Fetch Unit:
            Area = 1.07061 mm^2
            Peak Dynamic Power = 0.069507 W
            Subthreshold Leakage Power = 0.0768543 W
            Gate Leakage Power = 0.00183262 W
            Runtime Dynamic Power = 0.0677021 W
            Runtime Dynamic Energy = 0.0120803 J
            Total Runtime Energy = 0.0261207 J

              Instruction Cache:
                Area = 1.06646 mm^2
                Peak Dynamic Power = 0.0345629 W
                Subthreshold Leakage Power = 0.0723979 W
                Gate Leakage Power = 0.00168831 W
                Runtime Dynamic Power = 0.0413086 W
                Runtime Dynamic Energy = 0.00737083 J
                Total Runtime Energy = 0.0205903 J

                  Data and Tag Arrays:
                    Area = 0.259164 mm^2
                    Peak Dynamic Power = 0 W
                    Subthreshold Leakage Power = 0.066312 W
                    Gate Leakage Power = 0.00138196 W
                    Runtime Dynamic Power = 0.0412922 W
                    Runtime Dynamic Energy = 0.0073679 J
                    Total Runtime Energy = 0.0194467 J

                  Miss Buffer:
                    Area = 0.315209 mm^2
                    Peak Dynamic Power = 0.0124784 W
                    Subthreshold Leakage Power = 0.00218421 W
                    Gate Leakage Power = 0.000109941 W
                    Runtime Dynamic Power = 5.96324e-06 W
                    Runtime Dynamic Energy = 1.06404e-06 J
                    Total Runtime Energy = 0.000410417 J

                  Fill Buffer:
                    Area = 0.246043 mm^2
                    Peak Dynamic Power = 0.0110423 W
                    Subthreshold Leakage Power = 0.00195087 W
                    Gate Leakage Power = 9.82028e-05 W
                    Runtime Dynamic Power = 5.23041e-06 W
                    Runtime Dynamic Energy = 9.33279e-07 J
                    Total Runtime Energy = 0.000366556 J

                  Prefetch Buffer:
                    Area = 0.246043 mm^2
                    Peak Dynamic Power = 0.0110423 W
                    Subthreshold Leakage Power = 0.00195087 W
                    Gate Leakage Power = 9.82028e-05 W
                    Runtime Dynamic Power = 5.23041e-06 W
                    Runtime Dynamic Energy = 9.33279e-07 J
                    Total Runtime Energy = 0.000366556 J

              Instruction Buffer:
                Area = 0.00177465 mm^2
                Peak Dynamic Power = 0.00177346 W
                Subthreshold Leakage Power = 0.000334365 W
                Gate Leakage Power = 1.02451e-05 W
                Runtime Dynamic Power = 0.0013395 W
                Runtime Dynamic Energy = 0.000239012 J
                Total Runtime Energy = 0.000300502 J

              Instruction Opcode Decoder:
                Area = 0.000733115 mm^2
                Peak Dynamic Power = 0.0110556 W
                Subthreshold Leakage Power = 0.00127003 W
                Gate Leakage Power = 4.16647e-05 W
                Runtime Dynamic Power = 0.00835034 W
                Runtime Dynamic Energy = 0.00148998 J
                Total Runtime Energy = 0.00172403 J

              Instruction Operand Decoder:
                Area = 0.00018867 mm^2
                Peak Dynamic Power = 0.0110476 W
                Subthreshold Leakage Power = 0.00032028 W
                Gate Leakage Power = 1.08411e-05 W
                Runtime Dynamic Power = 0.00834429 W
                Runtime Dynamic Energy = 0.0014889 J
                Total Runtime Energy = 0.00154798 J

              Instruction Microcode Decoder:
                Area = 0.00144948 mm^2
                Peak Dynamic Power = 0.0110675 W
                Subthreshold Leakage Power = 0.00253168 W
                Gate Leakage Power = 8.15593e-05 W
                Runtime Dynamic Power = 0.00835932 W
                Runtime Dynamic Energy = 0.00149158 J
                Total Runtime Energy = 0.00195787 J

          Load/Store Unit:
            Area = 1.11574 mm^2
            Peak Dynamic Power = 0.0490235 W
            Subthreshold Leakage Power = 0.076641 W
            Gate Leakage Power = 0.00186238 W
            Runtime Dynamic Power = 0.0171253 W
            Runtime Dynamic Energy = 0.00305573 J
            Total Runtime Energy = 0.0170633 J

              Data Cache:
                Area = 1.06646 mm^2
                Peak Dynamic Power = 0.0345629 W
                Subthreshold Leakage Power = 0.0723979 W
                Gate Leakage Power = 0.00168831 W
                Runtime Dynamic Power = 0.012109 W
                Runtime Dynamic Energy = 0.00216064 J
                Total Runtime Energy = 0.0153801 J

                  Data and Tag Arrays:
                    Area = 0.259164 mm^2
                    Peak Dynamic Power = 0 W
                    Subthreshold Leakage Power = 0.066312 W
                    Gate Leakage Power = 0.00138196 W
                    Runtime Dynamic Power = 0.0120403 W
                    Runtime Dynamic Energy = 0.00214838 J
                    Total Runtime Energy = 0.0142272 J

                  Miss Buffer:
                    Area = 0.315209 mm^2
                    Peak Dynamic Power = 0.0124784 W
                    Subthreshold Leakage Power = 0.00218421 W
                    Gate Leakage Power = 0.000109941 W
                    Runtime Dynamic Power = 2.97084e-05 W
                    Runtime Dynamic Energy = 5.30097e-06 J
                    Total Runtime Energy = 0.000414654 J

                  Fill Buffer:
                    Area = 0.246043 mm^2
                    Peak Dynamic Power = 0.0110423 W
                    Subthreshold Leakage Power = 0.00195087 W
                    Gate Leakage Power = 9.82028e-05 W
                    Runtime Dynamic Power = 2.60575e-05 W
                    Runtime Dynamic Energy = 4.64952e-06 J
                    Total Runtime Energy = 0.000370272 J

                  Prefetch Buffer:
                    Area = 0.246043 mm^2
                    Peak Dynamic Power = 0.0110423 W
                    Subthreshold Leakage Power = 0.00195087 W
                    Gate Leakage Power = 9.82028e-05 W
                    Runtime Dynamic Power = 1.29509e-05 W
                    Runtime Dynamic Energy = 2.31088e-06 J
                    Total Runtime Energy = 0.000367934 J

              Store Queue:
                Area = 0.0492795 mm^2
                Peak Dynamic Power = 0.0144605 W
                Subthreshold Leakage Power = 0.00424307 W
                Gate Leakage Power = 0.000174072 W
                Runtime Dynamic Power = 0.00501636 W
                Runtime Dynamic Energy = 0.000895085 J
                Total Runtime Energy = 0.00168325 J

          Memory Management Unit:
            Area = 0.0640137 mm^2
            Peak Dynamic Power = 0.020655 W
            Subthreshold Leakage Power = 0.0107524 W
            Gate Leakage Power = 0.00041319 W
            Runtime Dynamic Power = 0.00706217 W
            Runtime Dynamic Energy = 0.00126013 J
            Total Runtime Energy = 0.00325244 J

              Instruction TLB:
                Area = 0.0196043 mm^2
                Peak Dynamic Power = 0.00880588 W
                Subthreshold Leakage Power = 0.00418736 W
                Gate Leakage Power = 0.000171372 W
                Runtime Dynamic Power = 0.00550722 W
                Runtime Dynamic Energy = 0.000982671 J
                Total Runtime Energy = 0.00176041 J

              Data TLB:
                Area = 0.0444093 mm^2
                Peak Dynamic Power = 0.0118492 W
                Subthreshold Leakage Power = 0.00656505 W
                Gate Leakage Power = 0.000241817 W
                Runtime Dynamic Power = 0.00155495 W
                Runtime Dynamic Energy = 0.000277455 J
                Total Runtime Energy = 0.00149203 J

          Execution Unit:
            Area = 2.22898 mm^2
            Peak Dynamic Power = 0.586365 W
            Subthreshold Leakage Power = 0.497274 W
            Gate Leakage Power = 0.0497488 W
            Runtime Dynamic Power = 0.103519 W
            Runtime Dynamic Energy = 0.0184712 J
            Total Runtime Energy = 0.116078 J

              Int Bypass Data:
                Area = 0.00171352 mm^2
                Peak Dynamic Power = 0 W
                Subthreshold Leakage Power = 0 W
                Gate Leakage Power = 0 W
                Runtime Dynamic Power = 9.8561e-09 W
                Runtime Dynamic Energy = 1.75865e-09 J
                Total Runtime Energy = 1.75865e-09 J

              Int Bypass Tag:
                Area = 0.00021419 mm^2
                Peak Dynamic Power = 0 W
                Subthreshold Leakage Power = 0 W
                Gate Leakage Power = 0 W
                Runtime Dynamic Power = 1.23201e-09 W
                Runtime Dynamic Energy = 2.19832e-10 J
                Total Runtime Energy = 2.19832e-10 J

              Mul Bypass Data:
                Area = 0.00383958 mm^2
                Peak Dynamic Power = 0 W
                Subthreshold Leakage Power = 0 W
                Gate Leakage Power = 0 W
                Runtime Dynamic Power = 3.15502e-09 W
                Runtime Dynamic Energy = 5.6296e-10 J
                Total Runtime Energy = 5.6296e-10 J

              Mul Bypass Tag:
                Area = 0.000319965 mm^2
                Peak Dynamic Power = 0 W
                Subthreshold Leakage Power = 0 W
                Gate Leakage Power = 0 W
                Runtime Dynamic Power = 2.62918e-10 W
                Runtime Dynamic Energy = 4.69133e-11 J
                Total Runtime Energy = 4.69133e-11 J

              FP Bypass Data:
                Area = 0.00547065 mm^2
                Peak Dynamic Power = 0 W
                Subthreshold Leakage Power = 0 W
                Gate Leakage Power = 0 W
                Runtime Dynamic Power = 8.99056e-09 W
                Runtime Dynamic Energy = 1.60421e-09 J
                Total Runtime Energy = 1.60421e-09 J

              FP Bypass Tag:
                Area = 0.00050165 mm^2
                Peak Dynamic Power = 0 W
                Subthreshold Leakage Power = 0 W
                Gate Leakage Power = 0 W
                Runtime Dynamic Power = 8.24421e-10 W
                Runtime Dynamic Energy = 1.47104e-10 J
                Total Runtime Energy = 1.47104e-10 J

              Register File Unit:
                Area = 0.0294128 mm^2
                Peak Dynamic Power = 0.0343622 W
                Subthreshold Leakage Power = 0.00191002 W
                Gate Leakage Power = 5.14853e-05 W
                Runtime Dynamic Power = 3.90833e-09 W
                Runtime Dynamic Energy = 6.97375e-10 J
                Total Runtime Energy = 0.000349999 J

                  Integer Register File:
                    Area = 0.0186223 mm^2
                    Peak Dynamic Power = 0.028914 W
                    Subthreshold Leakage Power = 0.000762251 W
                    Gate Leakage Power = 2.05735e-05 W
                    Runtime Dynamic Power = 3.08655e-09 W
                    Runtime Dynamic Energy = 5.50744e-10 J
                    Total Runtime Energy = 0.000139682 J

                  FP Register File:
                    Area = 0.0107906 mm^2
                    Peak Dynamic Power = 0.00544812 W
                    Subthreshold Leakage Power = 0.00114777 W
                    Gate Leakage Power = 3.09119e-05 W
                    Runtime Dynamic Power = 8.2177e-10 W
                    Runtime Dynamic Energy = 1.46631e-10 J
                    Total Runtime Energy = 0.000210317 J

              Integer ALU(s):
                Area = 0.138846 mm^2
                Peak Dynamic Power = 0.157715 W
                Subthreshold Leakage Power = 0.085206 W
                Gate Leakage Power = 0.00854828 W
                Runtime Dynamic Power = 0.0375829 W
                Runtime Dynamic Energy = 0.00670604 J
                Total Runtime Energy = 0.0234349 J

              Floating Point Unit(s):
                Area = 1.8404 mm^2
                Peak Dynamic Power = 0.236573 W
                Subthreshold Leakage Power = 0.282349 W
                Gate Leakage Power = 0.0283266 W
                Runtime Dynamic Power = 0.0659359 W
                Runtime Dynamic Energy = 0.0117652 J
                Total Runtime Energy = 0.0672 J

              Multiply/Divide Unit(s):
                Area = 0.20827 mm^2
                Peak Dynamic Power = 0.157715 W
                Subthreshold Leakage Power = 0.127809 W
                Gate Leakage Power = 0.0128224 W
                Runtime Dynamic Power = 8.8389e-09 W
                Runtime Dynamic Energy = 1.57715e-09 J
                Total Runtime Energy = 0.0250933 J

          Undifferentiated Core:
            Area = 0.528329 mm^2
            Peak Dynamic Power = 0 W
            Subthreshold Leakage Power = 0.16211 W
            Gate Leakage Power = 0.0162637 W
            Runtime Dynamic Power = 0 W
            Runtime Dynamic Energy = 0 J
            Total Runtime Energy = 0.0318278 J

          Pipeline?:
            Area = 0.105346 mm^2
            Peak Dynamic Power = 0 W
            Subthreshold Leakage Power = 0.0863787 W
            Gate Leakage Power = 0.00920013 W
            Runtime Dynamic Power = 0.183322 W
            Runtime Dynamic Energy = 0.0327107 J
            Total Runtime Energy = 0.0497652 J

      Core 3:
        Area = 5.11302 mm^2
        Peak Dynamic Power = 0.725551 W
        Subthreshold Leakage Power = 0.910011 W
        Gate Leakage Power = 0.0793208 W
        Runtime Dynamic Power = 0.280974 W
        Runtime Dynamic Energy = 0.0501351 J
        Total Runtime Energy = 0.226665 J

          Instruction Fetch Unit:
            Area = 1.07061 mm^2
            Peak Dynamic Power = 0.069507 W
            Subthreshold Leakage Power = 0.0768543 W
            Gate Leakage Power = 0.00183262 W
            Runtime Dynamic Power = 0.033653 W
            Runtime Dynamic Energy = 0.0060048 J
            Total Runtime Energy = 0.0200452 J

              Instruction Cache:
                Area = 1.06646 mm^2
                Peak Dynamic Power = 0.0345629 W
                Subthreshold Leakage Power = 0.0723979 W
                Gate Leakage Power = 0.00168831 W
                Runtime Dynamic Power = 0.02079 W
                Runtime Dynamic Energy = 0.00370963 J
                Total Runtime Energy = 0.0169291 J

                  Data and Tag Arrays:
                    Area = 0.259164 mm^2
                    Peak Dynamic Power = 0 W
                    Subthreshold Leakage Power = 0.066312 W
                    Gate Leakage Power = 0.00138196 W
                    Runtime Dynamic Power = 0.0207801 W
                    Runtime Dynamic Energy = 0.00370785 J
                    Total Runtime Energy = 0.0157867 J

                  Miss Buffer:
                    Area = 0.315209 mm^2
                    Peak Dynamic Power = 0.0124784 W
                    Subthreshold Leakage Power = 0.00218421 W
                    Gate Leakage Power = 0.000109941 W
                    Runtime Dynamic Power = 3.62423e-06 W
                    Runtime Dynamic Energy = 6.46682e-07 J
                    Total Runtime Energy = 0.00041 J

                  Fill Buffer:
                    Area = 0.246043 mm^2
                    Peak Dynamic Power = 0.0110423 W
                    Subthreshold Leakage Power = 0.00195087 W
                    Gate Leakage Power = 9.82028e-05 W
                    Runtime Dynamic Power = 3.17884e-06 W
                    Runtime Dynamic Energy = 5.6721e-07 J
                    Total Runtime Energy = 0.00036619 J

                  Prefetch Buffer:
                    Area = 0.246043 mm^2
                    Peak Dynamic Power = 0.0110423 W
                    Subthreshold Leakage Power = 0.00195087 W
                    Gate Leakage Power = 9.82028e-05 W
                    Runtime Dynamic Power = 3.17884e-06 W
                    Runtime Dynamic Energy = 5.6721e-07 J
                    Total Runtime Energy = 0.00036619 J

              Instruction Buffer:
                Area = 0.00177465 mm^2
                Peak Dynamic Power = 0.00177346 W
                Subthreshold Leakage Power = 0.000334365 W
                Gate Leakage Power = 1.02451e-05 W
                Runtime Dynamic Power = 0.00065281 W
                Runtime Dynamic Energy = 0.000116483 J
                Total Runtime Energy = 0.000177973 J

              Instruction Opcode Decoder:
                Area = 0.000733115 mm^2
                Peak Dynamic Power = 0.0110556 W
                Subthreshold Leakage Power = 0.00127003 W
                Gate Leakage Power = 4.16647e-05 W
                Runtime Dynamic Power = 0.00406956 W
                Runtime Dynamic Energy = 0.000726144 J
                Total Runtime Energy = 0.000960195 J

              Instruction Operand Decoder:
                Area = 0.00018867 mm^2
                Peak Dynamic Power = 0.0110476 W
                Subthreshold Leakage Power = 0.00032028 W
                Gate Leakage Power = 1.08411e-05 W
                Runtime Dynamic Power = 0.00406661 W
                Runtime Dynamic Energy = 0.000725618 J
                Total Runtime Energy = 0.000784701 J

              Instruction Microcode Decoder:
                Area = 0.00144948 mm^2
                Peak Dynamic Power = 0.0110675 W
                Subthreshold Leakage Power = 0.00253168 W
                Gate Leakage Power = 8.15593e-05 W
                Runtime Dynamic Power = 0.00407393 W
                Runtime Dynamic Energy = 0.000726925 J
                Total Runtime Energy = 0.00119321 J

          Load/Store Unit:
            Area = 1.11574 mm^2
            Peak Dynamic Power = 0.0490235 W
            Subthreshold Leakage Power = 0.076641 W
            Gate Leakage Power = 0.00186238 W
            Runtime Dynamic Power = 0.00849691 W
            Runtime Dynamic Energy = 0.00151613 J
            Total Runtime Energy = 0.0155237 J

              Data Cache:
                Area = 1.06646 mm^2
                Peak Dynamic Power = 0.0345629 W
                Subthreshold Leakage Power = 0.0723979 W
                Gate Leakage Power = 0.00168831 W
                Runtime Dynamic Power = 0.00611679 W
                Runtime Dynamic Energy = 0.00109144 J
                Total Runtime Energy = 0.0143109 J

                  Data and Tag Arrays:
                    Area = 0.259164 mm^2
                    Peak Dynamic Power = 0 W
                    Subthreshold Leakage Power = 0.066312 W
                    Gate Leakage Power = 0.00138196 W
                    Runtime Dynamic Power = 0.00601163 W
                    Runtime Dynamic Energy = 0.00107268 J
                    Total Runtime Energy = 0.0131515 J

                  Miss Buffer:
                    Area = 0.315209 mm^2
                    Peak Dynamic Power = 0.0124784 W
                    Subthreshold Leakage Power = 0.00218421 W
                    Gate Leakage Power = 0.000109941 W
                    Runtime Dynamic Power = 3.89204e-05 W
                    Runtime Dynamic Energy = 6.94469e-06 J
                    Total Runtime Energy = 0.000416298 J

                  Fill Buffer:
                    Area = 0.246043 mm^2
                    Peak Dynamic Power = 0.0110423 W
                    Subthreshold Leakage Power = 0.00195087 W
                    Gate Leakage Power = 9.82028e-05 W
                    Runtime Dynamic Power = 3.41374e-05 W
                    Runtime Dynamic Energy = 6.09125e-06 J
                    Total Runtime Energy = 0.000371714 J

                  Prefetch Buffer:
                    Area = 0.246043 mm^2
                    Peak Dynamic Power = 0.0110423 W
                    Subthreshold Leakage Power = 0.00195087 W
                    Gate Leakage Power = 9.82028e-05 W
                    Runtime Dynamic Power = 3.20947e-05 W
                    Runtime Dynamic Energy = 5.72676e-06 J
                    Total Runtime Energy = 0.00037135 J

              Store Queue:
                Area = 0.0492795 mm^2
                Peak Dynamic Power = 0.0144605 W
                Subthreshold Leakage Power = 0.00424307 W
                Gate Leakage Power = 0.000174072 W
                Runtime Dynamic Power = 0.00238012 W
                Runtime Dynamic Energy = 0.000424693 J
                Total Runtime Energy = 0.00121286 J

          Memory Management Unit:
            Area = 0.0640137 mm^2
            Peak Dynamic Power = 0.020655 W
            Subthreshold Leakage Power = 0.0107524 W
            Gate Leakage Power = 0.00041319 W
            Runtime Dynamic Power = 0.00360018 W
            Runtime Dynamic Energy = 0.000642391 J
            Total Runtime Energy = 0.00263471 J

              Instruction TLB:
                Area = 0.0196043 mm^2
                Peak Dynamic Power = 0.00880588 W
                Subthreshold Leakage Power = 0.00418736 W
                Gate Leakage Power = 0.000171372 W
                Runtime Dynamic Power = 0.00288177 W
                Runtime Dynamic Energy = 0.000514203 J
                Total Runtime Energy = 0.00129195 J

              Data TLB:
                Area = 0.0444093 mm^2
                Peak Dynamic Power = 0.0118492 W
                Subthreshold Leakage Power = 0.00656505 W
                Gate Leakage Power = 0.000241817 W
                Runtime Dynamic Power = 0.000718411 W
                Runtime Dynamic Energy = 0.000128188 J
                Total Runtime Energy = 0.00134276 J

          Execution Unit:
            Area = 2.22898 mm^2
            Peak Dynamic Power = 0.586365 W
            Subthreshold Leakage Power = 0.497274 W
            Gate Leakage Power = 0.0497488 W
            Runtime Dynamic Power = 0.0519019 W
            Runtime Dynamic Energy = 0.00926103 J
            Total Runtime Energy = 0.106868 J

              Int Bypass Data:
                Area = 0.00171352 mm^2
                Peak Dynamic Power = 0 W
                Subthreshold Leakage Power = 0 W
                Gate Leakage Power = 0 W
                Runtime Dynamic Power = 9.8561e-09 W
                Runtime Dynamic Energy = 1.75865e-09 J
                Total Runtime Energy = 1.75865e-09 J

              Int Bypass Tag:
                Area = 0.00021419 mm^2
                Peak Dynamic Power = 0 W
                Subthreshold Leakage Power = 0 W
                Gate Leakage Power = 0 W
                Runtime Dynamic Power = 1.23201e-09 W
                Runtime Dynamic Energy = 2.19832e-10 J
                Total Runtime Energy = 2.19832e-10 J

              Mul Bypass Data:
                Area = 0.00383958 mm^2
                Peak Dynamic Power = 0 W
                Subthreshold Leakage Power = 0 W
                Gate Leakage Power = 0 W
                Runtime Dynamic Power = 3.15502e-09 W
                Runtime Dynamic Energy = 5.6296e-10 J
                Total Runtime Energy = 5.6296e-10 J

              Mul Bypass Tag:
                Area = 0.000319965 mm^2
                Peak Dynamic Power = 0 W
                Subthreshold Leakage Power = 0 W
                Gate Leakage Power = 0 W
                Runtime Dynamic Power = 2.62918e-10 W
                Runtime Dynamic Energy = 4.69133e-11 J
                Total Runtime Energy = 4.69133e-11 J

              FP Bypass Data:
                Area = 0.00547065 mm^2
                Peak Dynamic Power = 0 W
                Subthreshold Leakage Power = 0 W
                Gate Leakage Power = 0 W
                Runtime Dynamic Power = 8.99056e-09 W
                Runtime Dynamic Energy = 1.60421e-09 J
                Total Runtime Energy = 1.60421e-09 J

              FP Bypass Tag:
                Area = 0.00050165 mm^2
                Peak Dynamic Power = 0 W
                Subthreshold Leakage Power = 0 W
                Gate Leakage Power = 0 W
                Runtime Dynamic Power = 8.24421e-10 W
                Runtime Dynamic Energy = 1.47104e-10 J
                Total Runtime Energy = 1.47104e-10 J

              Register File Unit:
                Area = 0.0294128 mm^2
                Peak Dynamic Power = 0.0343622 W
                Subthreshold Leakage Power = 0.00191002 W
                Gate Leakage Power = 5.14853e-05 W
                Runtime Dynamic Power = 3.90833e-09 W
                Runtime Dynamic Energy = 6.97375e-10 J
                Total Runtime Energy = 0.000349999 J

                  Integer Register File:
                    Area = 0.0186223 mm^2
                    Peak Dynamic Power = 0.028914 W
                    Subthreshold Leakage Power = 0.000762251 W
                    Gate Leakage Power = 2.05735e-05 W
                    Runtime Dynamic Power = 3.08655e-09 W
                    Runtime Dynamic Energy = 5.50744e-10 J
                    Total Runtime Energy = 0.000139682 J

                  FP Register File:
                    Area = 0.0107906 mm^2
                    Peak Dynamic Power = 0.00544812 W
                    Subthreshold Leakage Power = 0.00114777 W
                    Gate Leakage Power = 3.09119e-05 W
                    Runtime Dynamic Power = 8.2177e-10 W
                    Runtime Dynamic Energy = 1.46631e-10 J
                    Total Runtime Energy = 0.000210317 J

              Integer ALU(s):
                Area = 0.138846 mm^2
                Peak Dynamic Power = 0.157715 W
                Subthreshold Leakage Power = 0.085206 W
                Gate Leakage Power = 0.00854828 W
                Runtime Dynamic Power = 0.0175902 W
                Runtime Dynamic Energy = 0.00313868 J
                Total Runtime Energy = 0.0198676 J

              Floating Point Unit(s):
                Area = 1.8404 mm^2
                Peak Dynamic Power = 0.236573 W
                Subthreshold Leakage Power = 0.282349 W
                Gate Leakage Power = 0.0283266 W
                Runtime Dynamic Power = 0.0343117 W
                Runtime Dynamic Energy = 0.00612234 J
                Total Runtime Energy = 0.0615572 J

              Multiply/Divide Unit(s):
                Area = 0.20827 mm^2
                Peak Dynamic Power = 0.157715 W
                Subthreshold Leakage Power = 0.127809 W
                Gate Leakage Power = 0.0128224 W
                Runtime Dynamic Power = 8.8389e-09 W
                Runtime Dynamic Energy = 1.57715e-09 J
                Total Runtime Energy = 0.0250933 J

          Undifferentiated Core:
            Area = 0.528329 mm^2
            Peak Dynamic Power = 0 W
            Subthreshold Leakage Power = 0.16211 W
            Gate Leakage Power = 0.0162637 W
            Runtime Dynamic Power = 0 W
            Runtime Dynamic Energy = 0 J
            Total Runtime Energy = 0.0318278 J

          Pipeline?:
            Area = 0.105346 mm^2
            Peak Dynamic Power = 0 W
            Subthreshold Leakage Power = 0.0863787 W
            Gate Leakage Power = 0.00920013 W
            Runtime Dynamic Power = 0.183322 W
            Runtime Dynamic Energy = 0.0327107 J
            Total Runtime Energy = 0.0497652 J

      Core 4:
        Area = 5.11302 mm^2
        Peak Dynamic Power = 0.725551 W
        Subthreshold Leakage Power = 0.910011 W
        Gate Leakage Power = 0.0793208 W
        Runtime Dynamic Power = 0.281014 W
        Runtime Dynamic Energy = 0.0501423 J
        Total Runtime Energy = 0.226672 J

          Instruction Fetch Unit:
            Area = 1.07061 mm^2
            Peak Dynamic Power = 0.069507 W
            Subthreshold Leakage Power = 0.0768543 W
            Gate Leakage Power = 0.00183262 W
            Runtime Dynamic Power = 0.0337275 W
            Runtime Dynamic Energy = 0.00601811 J
            Total Runtime Energy = 0.0200585 J

              Instruction Cache:
                Area = 1.06646 mm^2
                Peak Dynamic Power = 0.0345629 W
                Subthreshold Leakage Power = 0.0723979 W
                Gate Leakage Power = 0.00168831 W
                Runtime Dynamic Power = 0.0208433 W
                Runtime Dynamic Energy = 0.00371914 J
                Total Runtime Energy = 0.0169386 J

                  Data and Tag Arrays:
                    Area = 0.259164 mm^2
                    Peak Dynamic Power = 0 W
                    Subthreshold Leakage Power = 0.066312 W
                    Gate Leakage Power = 0.00138196 W
                    Runtime Dynamic Power = 0.0208331 W
                    Runtime Dynamic Energy = 0.00371731 J
                    Total Runtime Energy = 0.0157962 J

                  Miss Buffer:
                    Area = 0.315209 mm^2
                    Peak Dynamic Power = 0.0124784 W
                    Subthreshold Leakage Power = 0.00218421 W
                    Gate Leakage Power = 0.000109941 W
                    Runtime Dynamic Power = 3.71906e-06 W
                    Runtime Dynamic Energy = 6.63604e-07 J
                    Total Runtime Energy = 0.000410017 J

                  Fill Buffer:
                    Area = 0.246043 mm^2
                    Peak Dynamic Power = 0.0110423 W
                    Subthreshold Leakage Power = 0.00195087 W
                    Gate Leakage Power = 9.82028e-05 W
                    Runtime Dynamic Power = 3.26202e-06 W
                    Runtime Dynamic Energy = 5.82053e-07 J
                    Total Runtime Energy = 0.000366205 J

                  Prefetch Buffer:
                    Area = 0.246043 mm^2
                    Peak Dynamic Power = 0.0110423 W
                    Subthreshold Leakage Power = 0.00195087 W
                    Gate Leakage Power = 9.82028e-05 W
                    Runtime Dynamic Power = 3.26202e-06 W
                    Runtime Dynamic Energy = 5.82053e-07 J
                    Total Runtime Energy = 0.000366205 J

              Instruction Buffer:
                Area = 0.00177465 mm^2
                Peak Dynamic Power = 0.00177346 W
                Subthreshold Leakage Power = 0.000334365 W
                Gate Leakage Power = 1.02451e-05 W
                Runtime Dynamic Power = 0.000653891 W
                Runtime Dynamic Energy = 0.000116676 J
                Total Runtime Energy = 0.000178166 J

              Instruction Opcode Decoder:
                Area = 0.000733115 mm^2
                Peak Dynamic Power = 0.0110556 W
                Subthreshold Leakage Power = 0.00127003 W
                Gate Leakage Power = 4.16647e-05 W
                Runtime Dynamic Power = 0.0040763 W
                Runtime Dynamic Energy = 0.000727347 J
                Total Runtime Energy = 0.000961398 J

              Instruction Operand Decoder:
                Area = 0.00018867 mm^2
                Peak Dynamic Power = 0.0110476 W
                Subthreshold Leakage Power = 0.00032028 W
                Gate Leakage Power = 1.08411e-05 W
                Runtime Dynamic Power = 0.00407335 W
                Runtime Dynamic Energy = 0.00072682 J
                Total Runtime Energy = 0.000785903 J

              Instruction Microcode Decoder:
                Area = 0.00144948 mm^2
                Peak Dynamic Power = 0.0110675 W
                Subthreshold Leakage Power = 0.00253168 W
                Gate Leakage Power = 8.15593e-05 W
                Runtime Dynamic Power = 0.00408068 W
                Runtime Dynamic Energy = 0.000728129 J
                Total Runtime Energy = 0.00119442 J

          Load/Store Unit:
            Area = 1.11574 mm^2
            Peak Dynamic Power = 0.0490235 W
            Subthreshold Leakage Power = 0.076641 W
            Gate Leakage Power = 0.00186238 W
            Runtime Dynamic Power = 0.00853265 W
            Runtime Dynamic Energy = 0.00152251 J
            Total Runtime Energy = 0.0155301 J

              Data Cache:
                Area = 1.06646 mm^2
                Peak Dynamic Power = 0.0345629 W
                Subthreshold Leakage Power = 0.0723979 W
                Gate Leakage Power = 0.00168831 W
                Runtime Dynamic Power = 0.0061428 W
                Runtime Dynamic Energy = 0.00109608 J
                Total Runtime Energy = 0.0143155 J

                  Data and Tag Arrays:
                    Area = 0.259164 mm^2
                    Peak Dynamic Power = 0 W
                    Subthreshold Leakage Power = 0.066312 W
                    Gate Leakage Power = 0.00138196 W
                    Runtime Dynamic Power = 0.00603734 W
                    Runtime Dynamic Energy = 0.00107726 J
                    Total Runtime Energy = 0.0131561 J

                  Miss Buffer:
                    Area = 0.315209 mm^2
                    Peak Dynamic Power = 0.0124784 W
                    Subthreshold Leakage Power = 0.00218421 W
                    Gate Leakage Power = 0.000109941 W
                    Runtime Dynamic Power = 3.90974e-05 W
                    Runtime Dynamic Energy = 6.97628e-06 J
                    Total Runtime Energy = 0.00041633 J

                  Fill Buffer:
                    Area = 0.246043 mm^2
                    Peak Dynamic Power = 0.0110423 W
                    Subthreshold Leakage Power = 0.00195087 W
                    Gate Leakage Power = 9.82028e-05 W
                    Runtime Dynamic Power = 3.42927e-05 W
                    Runtime Dynamic Energy = 6.11895e-06 J
                    Total Runtime Energy = 0.000371742 J

                  Prefetch Buffer:
                    Area = 0.246043 mm^2
                    Peak Dynamic Power = 0.0110423 W
                    Subthreshold Leakage Power = 0.00195087 W
                    Gate Leakage Power = 9.82028e-05 W
                    Runtime Dynamic Power = 3.20621e-05 W
                    Runtime Dynamic Energy = 5.72095e-06 J
                    Total Runtime Energy = 0.000371344 J

              Store Queue:
                Area = 0.0492795 mm^2
                Peak Dynamic Power = 0.0144605 W
                Subthreshold Leakage Power = 0.00424307 W
                Gate Leakage Power = 0.000174072 W
                Runtime Dynamic Power = 0.00238986 W
                Runtime Dynamic Energy = 0.00042643 J
                Total Runtime Energy = 0.00121459 J

          Memory Management Unit:
            Area = 0.0640137 mm^2
            Peak Dynamic Power = 0.020655 W
            Subthreshold Leakage Power = 0.0107524 W
            Gate Leakage Power = 0.00041319 W
            Runtime Dynamic Power = 0.003591 W
            Runtime Dynamic Energy = 0.000640754 J
            Total Runtime Energy = 0.00263307 J

              Instruction TLB:
                Area = 0.0196043 mm^2
                Peak Dynamic Power = 0.00880588 W
                Subthreshold Leakage Power = 0.00418736 W
                Gate Leakage Power = 0.000171372 W
                Runtime Dynamic Power = 0.00287502 W
                Runtime Dynamic Energy = 0.000513 J
                Total Runtime Energy = 0.00129074 J

              Data TLB:
                Area = 0.0444093 mm^2
                Peak Dynamic Power = 0.0118492 W
                Subthreshold Leakage Power = 0.00656505 W
                Gate Leakage Power = 0.000241817 W
                Runtime Dynamic Power = 0.000715976 W
                Runtime Dynamic Energy = 0.000127754 J
                Total Runtime Energy = 0.00134233 J

          Execution Unit:
            Area = 2.22898 mm^2
            Peak Dynamic Power = 0.586365 W
            Subthreshold Leakage Power = 0.497274 W
            Gate Leakage Power = 0.0497488 W
            Runtime Dynamic Power = 0.0518413 W
            Runtime Dynamic Energy = 0.0092502 J
            Total Runtime Energy = 0.106857 J

              Int Bypass Data:
                Area = 0.00171352 mm^2
                Peak Dynamic Power = 0 W
                Subthreshold Leakage Power = 0 W
                Gate Leakage Power = 0 W
                Runtime Dynamic Power = 9.8561e-09 W
                Runtime Dynamic Energy = 1.75865e-09 J
                Total Runtime Energy = 1.75865e-09 J

              Int Bypass Tag:
                Area = 0.00021419 mm^2
                Peak Dynamic Power = 0 W
                Subthreshold Leakage Power = 0 W
                Gate Leakage Power = 0 W
                Runtime Dynamic Power = 1.23201e-09 W
                Runtime Dynamic Energy = 2.19832e-10 J
                Total Runtime Energy = 2.19832e-10 J

              Mul Bypass Data:
                Area = 0.00383958 mm^2
                Peak Dynamic Power = 0 W
                Subthreshold Leakage Power = 0 W
                Gate Leakage Power = 0 W
                Runtime Dynamic Power = 3.15502e-09 W
                Runtime Dynamic Energy = 5.6296e-10 J
                Total Runtime Energy = 5.6296e-10 J

              Mul Bypass Tag:
                Area = 0.000319965 mm^2
                Peak Dynamic Power = 0 W
                Subthreshold Leakage Power = 0 W
                Gate Leakage Power = 0 W
                Runtime Dynamic Power = 2.62918e-10 W
                Runtime Dynamic Energy = 4.69133e-11 J
                Total Runtime Energy = 4.69133e-11 J

              FP Bypass Data:
                Area = 0.00547065 mm^2
                Peak Dynamic Power = 0 W
                Subthreshold Leakage Power = 0 W
                Gate Leakage Power = 0 W
                Runtime Dynamic Power = 8.99056e-09 W
                Runtime Dynamic Energy = 1.60421e-09 J
                Total Runtime Energy = 1.60421e-09 J

              FP Bypass Tag:
                Area = 0.00050165 mm^2
                Peak Dynamic Power = 0 W
                Subthreshold Leakage Power = 0 W
                Gate Leakage Power = 0 W
                Runtime Dynamic Power = 8.24421e-10 W
                Runtime Dynamic Energy = 1.47104e-10 J
                Total Runtime Energy = 1.47104e-10 J

              Register File Unit:
                Area = 0.0294128 mm^2
                Peak Dynamic Power = 0.0343622 W
                Subthreshold Leakage Power = 0.00191002 W
                Gate Leakage Power = 5.14853e-05 W
                Runtime Dynamic Power = 3.90833e-09 W
                Runtime Dynamic Energy = 6.97375e-10 J
                Total Runtime Energy = 0.000349999 J

                  Integer Register File:
                    Area = 0.0186223 mm^2
                    Peak Dynamic Power = 0.028914 W
                    Subthreshold Leakage Power = 0.000762251 W
                    Gate Leakage Power = 2.05735e-05 W
                    Runtime Dynamic Power = 3.08655e-09 W
                    Runtime Dynamic Energy = 5.50744e-10 J
                    Total Runtime Energy = 0.000139682 J

                  FP Register File:
                    Area = 0.0107906 mm^2
                    Peak Dynamic Power = 0.00544812 W
                    Subthreshold Leakage Power = 0.00114777 W
                    Gate Leakage Power = 3.09119e-05 W
                    Runtime Dynamic Power = 8.2177e-10 W
                    Runtime Dynamic Energy = 1.46631e-10 J
                    Total Runtime Energy = 0.000210317 J

              Integer ALU(s):
                Area = 0.138846 mm^2
                Peak Dynamic Power = 0.157715 W
                Subthreshold Leakage Power = 0.085206 W
                Gate Leakage Power = 0.00854828 W
                Runtime Dynamic Power = 0.0176927 W
                Runtime Dynamic Energy = 0.00315696 J
                Total Runtime Energy = 0.0198858 J

              Floating Point Unit(s):
                Area = 1.8404 mm^2
                Peak Dynamic Power = 0.236573 W
                Subthreshold Leakage Power = 0.282349 W
                Gate Leakage Power = 0.0283266 W
                Runtime Dynamic Power = 0.0341486 W
                Runtime Dynamic Energy = 0.00609324 J
                Total Runtime Energy = 0.0615281 J

              Multiply/Divide Unit(s):
                Area = 0.20827 mm^2
                Peak Dynamic Power = 0.157715 W
                Subthreshold Leakage Power = 0.127809 W
                Gate Leakage Power = 0.0128224 W
                Runtime Dynamic Power = 8.8389e-09 W
                Runtime Dynamic Energy = 1.57715e-09 J
                Total Runtime Energy = 0.0250933 J

          Undifferentiated Core:
            Area = 0.528329 mm^2
            Peak Dynamic Power = 0 W
            Subthreshold Leakage Power = 0.16211 W
            Gate Leakage Power = 0.0162637 W
            Runtime Dynamic Power = 0 W
            Runtime Dynamic Energy = 0 J
            Total Runtime Energy = 0.0318278 J

          Pipeline?:
            Area = 0.105346 mm^2
            Peak Dynamic Power = 0 W
            Subthreshold Leakage Power = 0.0863787 W
            Gate Leakage Power = 0.00920013 W
            Runtime Dynamic Power = 0.183322 W
            Runtime Dynamic Energy = 0.0327107 J
            Total Runtime Energy = 0.0497652 J

      Core 5:
        Area = 5.11302 mm^2
        Peak Dynamic Power = 0.725551 W
        Subthreshold Leakage Power = 0.910011 W
        Gate Leakage Power = 0.0793208 W
        Runtime Dynamic Power = 0.281423 W
        Runtime Dynamic Energy = 0.0502152 J
        Total Runtime Energy = 0.226745 J

          Instruction Fetch Unit:
            Area = 1.07061 mm^2
            Peak Dynamic Power = 0.069507 W
            Subthreshold Leakage Power = 0.0768543 W
            Gate Leakage Power = 0.00183262 W
            Runtime Dynamic Power = 0.0338194 W
            Runtime Dynamic Energy = 0.00603451 J
            Total Runtime Energy = 0.0200749 J

              Instruction Cache:
                Area = 1.06646 mm^2
                Peak Dynamic Power = 0.0345629 W
                Subthreshold Leakage Power = 0.0723979 W
                Gate Leakage Power = 0.00168831 W
                Runtime Dynamic Power = 0.0208936 W
                Runtime Dynamic Energy = 0.00372812 J
                Total Runtime Energy = 0.0169476 J

                  Data and Tag Arrays:
                    Area = 0.259164 mm^2
                    Peak Dynamic Power = 0 W
                    Subthreshold Leakage Power = 0.066312 W
                    Gate Leakage Power = 0.00138196 W
                    Runtime Dynamic Power = 0.0208835 W
                    Runtime Dynamic Energy = 0.0037263 J
                    Total Runtime Energy = 0.0158051 J

                  Miss Buffer:
                    Area = 0.315209 mm^2
                    Peak Dynamic Power = 0.0124784 W
                    Subthreshold Leakage Power = 0.00218421 W
                    Gate Leakage Power = 0.000109941 W
                    Runtime Dynamic Power = 3.69594e-06 W
                    Runtime Dynamic Energy = 6.59479e-07 J
                    Total Runtime Energy = 0.000410013 J

                  Fill Buffer:
                    Area = 0.246043 mm^2
                    Peak Dynamic Power = 0.0110423 W
                    Subthreshold Leakage Power = 0.00195087 W
                    Gate Leakage Power = 9.82028e-05 W
                    Runtime Dynamic Power = 3.24174e-06 W
                    Runtime Dynamic Energy = 5.78434e-07 J
                    Total Runtime Energy = 0.000366201 J

                  Prefetch Buffer:
                    Area = 0.246043 mm^2
                    Peak Dynamic Power = 0.0110423 W
                    Subthreshold Leakage Power = 0.00195087 W
                    Gate Leakage Power = 9.82028e-05 W
                    Runtime Dynamic Power = 3.24174e-06 W
                    Runtime Dynamic Energy = 5.78434e-07 J
                    Total Runtime Energy = 0.000366201 J

              Instruction Buffer:
                Area = 0.00177465 mm^2
                Peak Dynamic Power = 0.00177346 W
                Subthreshold Leakage Power = 0.000334365 W
                Gate Leakage Power = 1.02451e-05 W
                Runtime Dynamic Power = 0.000656 W
                Runtime Dynamic Energy = 0.000117052 J
                Total Runtime Energy = 0.000178542 J

              Instruction Opcode Decoder:
                Area = 0.000733115 mm^2
                Peak Dynamic Power = 0.0110556 W
                Subthreshold Leakage Power = 0.00127003 W
                Gate Leakage Power = 4.16647e-05 W
                Runtime Dynamic Power = 0.00408945 W
                Runtime Dynamic Energy = 0.000729693 J
                Total Runtime Energy = 0.000963743 J

              Instruction Operand Decoder:
                Area = 0.00018867 mm^2
                Peak Dynamic Power = 0.0110476 W
                Subthreshold Leakage Power = 0.00032028 W
                Gate Leakage Power = 1.08411e-05 W
                Runtime Dynamic Power = 0.00408648 W
                Runtime Dynamic Energy = 0.000729164 J
                Total Runtime Energy = 0.000788247 J

              Instruction Microcode Decoder:
                Area = 0.00144948 mm^2
                Peak Dynamic Power = 0.0110675 W
                Subthreshold Leakage Power = 0.00253168 W
                Gate Leakage Power = 8.15593e-05 W
                Runtime Dynamic Power = 0.00409384 W
                Runtime Dynamic Energy = 0.000730477 J
                Total Runtime Energy = 0.00119677 J

          Load/Store Unit:
            Area = 1.11574 mm^2
            Peak Dynamic Power = 0.0490235 W
            Subthreshold Leakage Power = 0.076641 W
            Gate Leakage Power = 0.00186238 W
            Runtime Dynamic Power = 0.00854255 W
            Runtime Dynamic Energy = 0.00152427 J
            Total Runtime Energy = 0.0155319 J

              Data Cache:
                Area = 1.06646 mm^2
                Peak Dynamic Power = 0.0345629 W
                Subthreshold Leakage Power = 0.0723979 W
                Gate Leakage Power = 0.00168831 W
                Runtime Dynamic Power = 0.00614983 W
                Runtime Dynamic Energy = 0.00109733 J
                Total Runtime Energy = 0.0143168 J

                  Data and Tag Arrays:
                    Area = 0.259164 mm^2
                    Peak Dynamic Power = 0 W
                    Subthreshold Leakage Power = 0.066312 W
                    Gate Leakage Power = 0.00138196 W
                    Runtime Dynamic Power = 0.00604424 W
                    Runtime Dynamic Energy = 0.00107849 J
                    Total Runtime Energy = 0.0131573 J

                  Miss Buffer:
                    Area = 0.315209 mm^2
                    Peak Dynamic Power = 0.0124784 W
                    Subthreshold Leakage Power = 0.00218421 W
                    Gate Leakage Power = 0.000109941 W
                    Runtime Dynamic Power = 3.91025e-05 W
                    Runtime Dynamic Energy = 6.97719e-06 J
                    Total Runtime Energy = 0.000416331 J

                  Fill Buffer:
                    Area = 0.246043 mm^2
                    Peak Dynamic Power = 0.0110423 W
                    Subthreshold Leakage Power = 0.00195087 W
                    Gate Leakage Power = 9.82028e-05 W
                    Runtime Dynamic Power = 3.42972e-05 W
                    Runtime Dynamic Energy = 6.11975e-06 J
                    Total Runtime Energy = 0.000371743 J

                  Prefetch Buffer:
                    Area = 0.246043 mm^2
                    Peak Dynamic Power = 0.0110423 W
                    Subthreshold Leakage Power = 0.00195087 W
                    Gate Leakage Power = 9.82028e-05 W
                    Runtime Dynamic Power = 3.21881e-05 W
                    Runtime Dynamic Energy = 5.74342e-06 J
                    Total Runtime Energy = 0.000371366 J

              Store Queue:
                Area = 0.0492795 mm^2
                Peak Dynamic Power = 0.0144605 W
                Subthreshold Leakage Power = 0.00424307 W
                Gate Leakage Power = 0.000174072 W
                Runtime Dynamic Power = 0.00239272 W
                Runtime Dynamic Energy = 0.00042694 J
                Total Runtime Energy = 0.0012151 J

          Memory Management Unit:
            Area = 0.0640137 mm^2
            Peak Dynamic Power = 0.020655 W
            Subthreshold Leakage Power = 0.0107524 W
            Gate Leakage Power = 0.00041319 W
            Runtime Dynamic Power = 0.00361559 W
            Runtime Dynamic Energy = 0.000645142 J
            Total Runtime Energy = 0.00263746 J

              Instruction TLB:
                Area = 0.0196043 mm^2
                Peak Dynamic Power = 0.00880588 W
                Subthreshold Leakage Power = 0.00418736 W
                Gate Leakage Power = 0.000171372 W
                Runtime Dynamic Power = 0.00289421 W
                Runtime Dynamic Energy = 0.000516422 J
                Total Runtime Energy = 0.00129417 J

              Data TLB:
                Area = 0.0444093 mm^2
                Peak Dynamic Power = 0.0118492 W
                Subthreshold Leakage Power = 0.00656505 W
                Gate Leakage Power = 0.000241817 W
                Runtime Dynamic Power = 0.000721389 W
                Runtime Dynamic Energy = 0.00012872 J
                Total Runtime Energy = 0.00134329 J

          Execution Unit:
            Area = 2.22898 mm^2
            Peak Dynamic Power = 0.586365 W
            Subthreshold Leakage Power = 0.497274 W
            Gate Leakage Power = 0.0497488 W
            Runtime Dynamic Power = 0.0521232 W
            Runtime Dynamic Energy = 0.00930051 J
            Total Runtime Energy = 0.106908 J

              Int Bypass Data:
                Area = 0.00171352 mm^2
                Peak Dynamic Power = 0 W
                Subthreshold Leakage Power = 0 W
                Gate Leakage Power = 0 W
                Runtime Dynamic Power = 9.8561e-09 W
                Runtime Dynamic Energy = 1.75865e-09 J
                Total Runtime Energy = 1.75865e-09 J

              Int Bypass Tag:
                Area = 0.00021419 mm^2
                Peak Dynamic Power = 0 W
                Subthreshold Leakage Power = 0 W
                Gate Leakage Power = 0 W
                Runtime Dynamic Power = 1.23201e-09 W
                Runtime Dynamic Energy = 2.19832e-10 J
                Total Runtime Energy = 2.19832e-10 J

              Mul Bypass Data:
                Area = 0.00383958 mm^2
                Peak Dynamic Power = 0 W
                Subthreshold Leakage Power = 0 W
                Gate Leakage Power = 0 W
                Runtime Dynamic Power = 3.15502e-09 W
                Runtime Dynamic Energy = 5.6296e-10 J
                Total Runtime Energy = 5.6296e-10 J

              Mul Bypass Tag:
                Area = 0.000319965 mm^2
                Peak Dynamic Power = 0 W
                Subthreshold Leakage Power = 0 W
                Gate Leakage Power = 0 W
                Runtime Dynamic Power = 2.62918e-10 W
                Runtime Dynamic Energy = 4.69133e-11 J
                Total Runtime Energy = 4.69133e-11 J

              FP Bypass Data:
                Area = 0.00547065 mm^2
                Peak Dynamic Power = 0 W
                Subthreshold Leakage Power = 0 W
                Gate Leakage Power = 0 W
                Runtime Dynamic Power = 8.99056e-09 W
                Runtime Dynamic Energy = 1.60421e-09 J
[...]
                Area = 0.00383958 mm^2
                Peak Dynamic Power = 0 W
                Subthreshold Leakage Power = 0 W
                Gate Leakage Power = 0 W
                Runtime Dynamic Power = 3.15502e-09 W
                Runtime Dynamic Energy = 5.6296e-10 J
                Total Runtime Energy = 5.6296e-10 J

              Mul Bypass Tag:
                Area = 0.000319965 mm^2
                Peak Dynamic Power = 0 W
                Subthreshold Leakage Power = 0 W
                Gate Leakage Power = 0 W
                Runtime Dynamic Power = 2.62918e-10 W
                Runtime Dynamic Energy = 4.69133e-11 J
                Total Runtime Energy = 4.69133e-11 J

              FP Bypass Data:
                Area = 0.00547065 mm^2
                Peak Dynamic Power = 0 W
                Subthreshold Leakage Power = 0 W
                Gate Leakage Power = 0 W
                Runtime Dynamic Power = 8.99056e-09 W
                Runtime Dynamic Energy = 1.60421e-09 J
                Total Runtime Energy = 1.60421e-09 J

              FP Bypass Tag:
                Area = 0.00050165 mm^2
                Peak Dynamic Power = 0 W
                Subthreshold Leakage Power = 0 W
                Gate Leakage Power = 0 W
                Runtime Dynamic Power = 8.24421e-10 W
                Runtime Dynamic Energy = 1.47104e-10 J
                Total Runtime Energy = 1.47104e-10 J

              Register File Unit:
                Area = 0.0294128 mm^2
                Peak Dynamic Power = 0.0343622 W
                Subthreshold Leakage Power = 0.00191002 W
                Gate Leakage Power = 5.14853e-05 W
                Runtime Dynamic Power = 3.90833e-09 W
                Runtime Dynamic Energy = 6.97375e-10 J
                Total Runtime Energy = 0.000349999 J

                  Integer Register File:
                    Area = 0.0186223 mm^2
                    Peak Dynamic Power = 0.028914 W
                    Subthreshold Leakage Power = 0.000762251 W
                    Gate Leakage Power = 2.05735e-05 W
                    Runtime Dynamic Power = 3.08655e-09 W
                    Runtime Dynamic Energy = 5.50744e-10 J
                    Total Runtime Energy = 0.000139682 J

                  FP Register File:
                    Area = 0.0107906 mm^2
                    Peak Dynamic Power = 0.00544812 W
                    Subthreshold Leakage Power = 0.00114777 W
                    Gate Leakage Power = 3.09119e-05 W
                    Runtime Dynamic Power = 8.2177e-10 W
                    Runtime Dynamic Energy = 1.46631e-10 J
                    Total Runtime Energy = 0.000210317 J

              Integer ALU(s):
                Area = 0.138846 mm^2
                Peak Dynamic Power = 0.157715 W
                Subthreshold Leakage Power = 0.085206 W
                Gate Leakage Power = 0.00854828 W
                Runtime Dynamic Power = 0.0176369 W
                Runtime Dynamic Energy = 0.00314702 J
                Total Runtime Energy = 0.0198759 J

              Floating Point Unit(s):
                Area = 1.8404 mm^2
                Peak Dynamic Power = 0.236573 W
                Subthreshold Leakage Power = 0.282349 W
                Gate Leakage Power = 0.0283266 W
                Runtime Dynamic Power = 0.0342351 W
                Runtime Dynamic Energy = 0.00610868 J
                Total Runtime Energy = 0.0615435 J

              Multiply/Divide Unit(s):
                Area = 0.20827 mm^2
                Peak Dynamic Power = 0.157715 W
                Subthreshold Leakage Power = 0.127809 W
                Gate Leakage Power = 0.0128224 W
                Runtime Dynamic Power = 8.8389e-09 W
                Runtime Dynamic Energy = 1.57715e-09 J
                Total Runtime Energy = 0.0250933 J

          Undifferentiated Core:
            Area = 0.528329 mm^2
            Peak Dynamic Power = 0 W
            Subthreshold Leakage Power = 0.16211 W
            Gate Leakage Power = 0.0162637 W
            Runtime Dynamic Power = 0 W
            Runtime Dynamic Energy = 0 J
            Total Runtime Energy = 0.0318278 J

          Pipeline?:
            Area = 0.105346 mm^2
            Peak Dynamic Power = 0 W
            Subthreshold Leakage Power = 0.0863787 W
            Gate Leakage Power = 0.00920013 W
            Runtime Dynamic Power = 0.183322 W
            Runtime Dynamic Energy = 0.0327107 J
            Total Runtime Energy = 0.0497652 J

      Core 15:
        Area = 5.11302 mm^2
        Peak Dynamic Power = 0.725551 W
        Subthreshold Leakage Power = 0.910011 W
        Gate Leakage Power = 0.0793208 W
        Runtime Dynamic Power = 0.281881 W
        Runtime Dynamic Energy = 0.0502968 J
        Total Runtime Energy = 0.226826 J

          Instruction Fetch Unit:
            Area = 1.07061 mm^2
            Peak Dynamic Power = 0.069507 W
            Subthreshold Leakage Power = 0.0768543 W
            Gate Leakage Power = 0.00183262 W
            Runtime Dynamic Power = 0.0339944 W
            Runtime Dynamic Energy = 0.00606572 J
            Total Runtime Energy = 0.0201061 J

              Instruction Cache:
                Area = 1.06646 mm^2
                Peak Dynamic Power = 0.0345629 W
                Subthreshold Leakage Power = 0.0723979 W
                Gate Leakage Power = 0.00168831 W
                Runtime Dynamic Power = 0.0210052 W
                Runtime Dynamic Energy = 0.00374803 J
                Total Runtime Energy = 0.0169675 J

                  Data and Tag Arrays:
                    Area = 0.259164 mm^2
                    Peak Dynamic Power = 0 W
                    Subthreshold Leakage Power = 0.066312 W
                    Gate Leakage Power = 0.00138196 W
                    Runtime Dynamic Power = 0.0209945 W
                    Runtime Dynamic Energy = 0.00374612 J
                    Total Runtime Energy = 0.015825 J

                  Miss Buffer:
                    Area = 0.315209 mm^2
                    Peak Dynamic Power = 0.0124784 W
                    Subthreshold Leakage Power = 0.00218421 W
                    Gate Leakage Power = 0.000109941 W
                    Runtime Dynamic Power = 3.88417e-06 W
                    Runtime Dynamic Energy = 6.93066e-07 J
                    Total Runtime Energy = 0.000410046 J

                  Fill Buffer:
                    Area = 0.246043 mm^2
                    Peak Dynamic Power = 0.0110423 W
                    Subthreshold Leakage Power = 0.00195087 W
                    Gate Leakage Power = 9.82028e-05 W
                    Runtime Dynamic Power = 3.40684e-06 W
                    Runtime Dynamic Energy = 6.07894e-07 J
                    Total Runtime Energy = 0.000366231 J

                  Prefetch Buffer:
                    Area = 0.246043 mm^2
                    Peak Dynamic Power = 0.0110423 W
                    Subthreshold Leakage Power = 0.00195087 W
                    Gate Leakage Power = 9.82028e-05 W
                    Runtime Dynamic Power = 3.40684e-06 W
                    Runtime Dynamic Energy = 6.07894e-07 J
                    Total Runtime Energy = 0.000366231 J

              Instruction Buffer:
                Area = 0.00177465 mm^2
                Peak Dynamic Power = 0.00177346 W
                Subthreshold Leakage Power = 0.000334365 W
                Gate Leakage Power = 1.02451e-05 W
                Runtime Dynamic Power = 0.000659216 W
                Runtime Dynamic Energy = 0.000117626 J
                Total Runtime Energy = 0.000179116 J

              Instruction Opcode Decoder:
                Area = 0.000733115 mm^2
                Peak Dynamic Power = 0.0110556 W
                Subthreshold Leakage Power = 0.00127003 W
                Gate Leakage Power = 4.16647e-05 W
                Runtime Dynamic Power = 0.0041095 W
                Runtime Dynamic Energy = 0.00073327 J
                Total Runtime Energy = 0.000967321 J

              Instruction Operand Decoder:
                Area = 0.00018867 mm^2
                Peak Dynamic Power = 0.0110476 W
                Subthreshold Leakage Power = 0.00032028 W
                Gate Leakage Power = 1.08411e-05 W
                Runtime Dynamic Power = 0.00410652 W
                Runtime Dynamic Energy = 0.000732739 J
                Total Runtime Energy = 0.000791822 J

              Instruction Microcode Decoder:
                Area = 0.00144948 mm^2
                Peak Dynamic Power = 0.0110675 W
                Subthreshold Leakage Power = 0.00253168 W
                Gate Leakage Power = 8.15593e-05 W
                Runtime Dynamic Power = 0.00411391 W
                Runtime Dynamic Energy = 0.000734059 J
                Total Runtime Energy = 0.00120035 J

          Load/Store Unit:
            Area = 1.11574 mm^2
            Peak Dynamic Power = 0.0490235 W
            Subthreshold Leakage Power = 0.076641 W
            Gate Leakage Power = 0.00186238 W
            Runtime Dynamic Power = 0.00859991 W
            Runtime Dynamic Energy = 0.00153451 J
            Total Runtime Energy = 0.0155421 J

              Data Cache:
                Area = 1.06646 mm^2
                Peak Dynamic Power = 0.0345629 W
                Subthreshold Leakage Power = 0.0723979 W
                Gate Leakage Power = 0.00168831 W
                Runtime Dynamic Power = 0.0061917 W
                Runtime Dynamic Energy = 0.00110481 J
                Total Runtime Energy = 0.0143242 J

                  Data and Tag Arrays:
                    Area = 0.259164 mm^2
                    Peak Dynamic Power = 0 W
                    Subthreshold Leakage Power = 0.066312 W
                    Gate Leakage Power = 0.00138196 W
                    Runtime Dynamic Power = 0.00608467 W
                    Runtime Dynamic Energy = 0.00108571 J
                    Total Runtime Energy = 0.0131646 J

                  Miss Buffer:
                    Area = 0.315209 mm^2
                    Peak Dynamic Power = 0.0124784 W
                    Subthreshold Leakage Power = 0.00218421 W
                    Gate Leakage Power = 0.000109941 W
                    Runtime Dynamic Power = 3.96908e-05 W
                    Runtime Dynamic Energy = 7.08216e-06 J
                    Total Runtime Energy = 0.000416436 J

                  Fill Buffer:
                    Area = 0.246043 mm^2
                    Peak Dynamic Power = 0.0110423 W
                    Subthreshold Leakage Power = 0.00195087 W
                    Gate Leakage Power = 9.82028e-05 W
                    Runtime Dynamic Power = 3.48132e-05 W
                    Runtime Dynamic Energy = 6.21182e-06 J
                    Total Runtime Energy = 0.000371835 J

                  Prefetch Buffer:
                    Area = 0.246043 mm^2
                    Peak Dynamic Power = 0.0110423 W
                    Subthreshold Leakage Power = 0.00195087 W
                    Gate Leakage Power = 9.82028e-05 W
                    Runtime Dynamic Power = 3.25342e-05 W
                    Runtime Dynamic Energy = 5.80518e-06 J
                    Total Runtime Energy = 0.000371428 J

              Store Queue:
                Area = 0.0492795 mm^2
                Peak Dynamic Power = 0.0144605 W
                Subthreshold Leakage Power = 0.00424307 W
                Gate Leakage Power = 0.000174072 W
                Runtime Dynamic Power = 0.0024082 W
                Runtime Dynamic Energy = 0.000429703 J
                Total Runtime Energy = 0.00121787 J

          Memory Management Unit:
            Area = 0.0640137 mm^2
            Peak Dynamic Power = 0.020655 W
            Subthreshold Leakage Power = 0.0107524 W
            Gate Leakage Power = 0.00041319 W
            Runtime Dynamic Power = 0.00362047 W
            Runtime Dynamic Energy = 0.000646013 J
            Total Runtime Energy = 0.00263833 J

              Instruction TLB:
                Area = 0.0196043 mm^2
                Peak Dynamic Power = 0.00880588 W
                Subthreshold Leakage Power = 0.00418736 W
                Gate Leakage Power = 0.000171372 W
                Runtime Dynamic Power = 0.00289765 W
                Runtime Dynamic Energy = 0.000517038 J
                Total Runtime Energy = 0.00129478 J

              Data TLB:
                Area = 0.0444093 mm^2
                Peak Dynamic Power = 0.0118492 W
                Subthreshold Leakage Power = 0.00656505 W
                Gate Leakage Power = 0.000241817 W
                Runtime Dynamic Power = 0.00072282 W
                Runtime Dynamic Energy = 0.000128975 J
                Total Runtime Energy = 0.00134355 J

          Execution Unit:
            Area = 2.22898 mm^2
            Peak Dynamic Power = 0.586365 W
            Subthreshold Leakage Power = 0.497274 W
            Gate Leakage Power = 0.0497488 W
            Runtime Dynamic Power = 0.0523438 W
            Runtime Dynamic Energy = 0.00933988 J
            Total Runtime Energy = 0.106947 J

              Int Bypass Data:
                Area = 0.00171352 mm^2
                Peak Dynamic Power = 0 W
                Subthreshold Leakage Power = 0 W
                Gate Leakage Power = 0 W
                Runtime Dynamic Power = 9.8561e-09 W
                Runtime Dynamic Energy = 1.75865e-09 J
                Total Runtime Energy = 1.75865e-09 J

              Int Bypass Tag:
                Area = 0.00021419 mm^2
                Peak Dynamic Power = 0 W
                Subthreshold Leakage Power = 0 W
                Gate Leakage Power = 0 W
                Runtime Dynamic Power = 1.23201e-09 W
                Runtime Dynamic Energy = 2.19832e-10 J
                Total Runtime Energy = 2.19832e-10 J

              Mul Bypass Data:
                Area = 0.00383958 mm^2
                Peak Dynamic Power = 0 W
                Subthreshold Leakage Power = 0 W
                Gate Leakage Power = 0 W
                Runtime Dynamic Power = 3.15502e-09 W
                Runtime Dynamic Energy = 5.6296e-10 J
                Total Runtime Energy = 5.6296e-10 J

              Mul Bypass Tag:
                Area = 0.000319965 mm^2
                Peak Dynamic Power = 0 W
                Subthreshold Leakage Power = 0 W
                Gate Leakage Power = 0 W
                Runtime Dynamic Power = 2.62918e-10 W
                Runtime Dynamic Energy = 4.69133e-11 J
                Total Runtime Energy = 4.69133e-11 J

              FP Bypass Data:
                Area = 0.00547065 mm^2
                Peak Dynamic Power = 0 W
                Subthreshold Leakage Power = 0 W
                Gate Leakage Power = 0 W
                Runtime Dynamic Power = 8.99056e-09 W
                Runtime Dynamic Energy = 1.60421e-09 J
                Total Runtime Energy = 1.60421e-09 J

              FP Bypass Tag:
                Area = 0.00050165 mm^2
                Peak Dynamic Power = 0 W
                Subthreshold Leakage Power = 0 W
                Gate Leakage Power = 0 W
                Runtime Dynamic Power = 8.24421e-10 W
                Runtime Dynamic Energy = 1.47104e-10 J
                Total Runtime Energy = 1.47104e-10 J

              Register File Unit:
                Area = 0.0294128 mm^2
                Peak Dynamic Power = 0.0343622 W
                Subthreshold Leakage Power = 0.00191002 W
                Gate Leakage Power = 5.14853e-05 W
                Runtime Dynamic Power = 3.90833e-09 W
                Runtime Dynamic Energy = 6.97375e-10 J
                Total Runtime Energy = 0.000349999 J

                  Integer Register File:
                    Area = 0.0186223 mm^2
                    Peak Dynamic Power = 0.028914 W
                    Subthreshold Leakage Power = 0.000762251 W
                    Gate Leakage Power = 2.05735e-05 W
                    Runtime Dynamic Power = 3.08655e-09 W
                    Runtime Dynamic Energy = 5.50744e-10 J
                    Total Runtime Energy = 0.000139682 J

                  FP Register File:
                    Area = 0.0107906 mm^2
                    Peak Dynamic Power = 0.00544812 W
                    Subthreshold Leakage Power = 0.00114777 W
                    Gate Leakage Power = 3.09119e-05 W
                    Runtime Dynamic Power = 8.2177e-10 W
                    Runtime Dynamic Energy = 1.46631e-10 J
                    Total Runtime Energy = 0.000210317 J

              Integer ALU(s):
                Area = 0.138846 mm^2
                Peak Dynamic Power = 0.157715 W
                Subthreshold Leakage Power = 0.085206 W
                Gate Leakage Power = 0.00854828 W
                Runtime Dynamic Power = 0.0177966 W
                Runtime Dynamic Energy = 0.0031755 J
                Total Runtime Energy = 0.0199044 J

              Floating Point Unit(s):
                Area = 1.8404 mm^2
                Peak Dynamic Power = 0.236573 W
                Subthreshold Leakage Power = 0.282349 W
                Gate Leakage Power = 0.0283266 W
                Runtime Dynamic Power = 0.0345472 W
                Runtime Dynamic Energy = 0.00616437 J
                Total Runtime Energy = 0.0615992 J

              Multiply/Divide Unit(s):
                Area = 0.20827 mm^2
                Peak Dynamic Power = 0.157715 W
                Subthreshold Leakage Power = 0.127809 W
                Gate Leakage Power = 0.0128224 W
                Runtime Dynamic Power = 8.8389e-09 W
                Runtime Dynamic Energy = 1.57715e-09 J
                Total Runtime Energy = 0.0250933 J

          Undifferentiated Core:
            Area = 0.528329 mm^2
            Peak Dynamic Power = 0 W
            Subthreshold Leakage Power = 0.16211 W
            Gate Leakage Power = 0.0162637 W
            Runtime Dynamic Power = 0 W
            Runtime Dynamic Energy = 0 J
            Total Runtime Energy = 0.0318278 J

          Pipeline?:
            Area = 0.105346 mm^2
            Peak Dynamic Power = 0 W
            Subthreshold Leakage Power = 0.0863787 W
            Gate Leakage Power = 0.00920013 W
            Runtime Dynamic Power = 0.183322 W
            Runtime Dynamic Energy = 0.0327107 J
            Total Runtime Energy = 0.0497652 J

      L2 Cache:
        Area = 2.37413 mm^2
        Peak Dynamic Power = 0.0345629 W
        Subthreshold Leakage Power = 0.575086 W
        Gate Leakage Power = 0.016576 W
        Runtime Dynamic Power = 0.0162917 W
        Runtime Dynamic Energy = 0.00290698 J
        Total Runtime Energy = 0.108479 J

          Data and Tag Arrays:
            Area = 1.56684 mm^2
            Peak Dynamic Power = 0 W
            Subthreshold Leakage Power = 0.569 W
            Gate Leakage Power = 0.0162696 W
            Runtime Dynamic Power = 0.0160988 W
            Runtime Dynamic Energy = 0.00287256 J
            Total Runtime Energy = 0.107304 J

          Miss Buffer:
            Area = 0.315209 mm^2
            Peak Dynamic Power = 0.0124784 W
            Subthreshold Leakage Power = 0.00218421 W
            Gate Leakage Power = 0.000109941 W
            Runtime Dynamic Power = 7.89999e-05 W
            Runtime Dynamic Energy = 1.40962e-05 J
            Total Runtime Energy = 0.00042345 J

          Fill Buffer:
            Area = 0.246043 mm^2
            Peak Dynamic Power = 0.0110423 W
            Subthreshold Leakage Power = 0.00195087 W
            Gate Leakage Power = 9.82028e-05 W
            Runtime Dynamic Power = 6.92915e-05 W
            Runtime Dynamic Energy = 1.23639e-05 J
            Total Runtime Energy = 0.000377987 J

          Prefetch Buffer:
            Area = 0.246043 mm^2
            Peak Dynamic Power = 0.0110423 W
            Subthreshold Leakage Power = 0.00195087 W
            Gate Leakage Power = 9.82028e-05 W
            Runtime Dynamic Power = 4.46106e-05 W
            Runtime Dynamic Energy = 7.96001e-06 J
            Total Runtime Energy = 0.000373583 J

