gem5 Simulator System.  http://gem5.org
gem5 is copyrighted software; use the --copyright option for details.

gem5 compiled Jan 21 2016 13:49:21
gem5 started Jan 21 2016 13:50:02
gem5 executing on zizzer, pid 33997
command line: build/ALPHA/gem5.opt -d build/ALPHA/tests/opt/quick/fs/10.linux-boot/alpha/linux/tsunami-simple-atomic -re /z/atgutier/gem5/gem5-commit/tests/run.py build/ALPHA/tests/opt/quick/fs/10.linux-boot/alpha/linux/tsunami-simple-atomic

Global frequency set at 1000000000000 ticks per second
info: kernel located at: /dist/m5/system/binaries/vmlinux
      0: system.tsunami.io.rtc: Real-time clock set to Thu Jan  1 00:00:00 2009
info: Entering event queue @ 0.  Starting simulation...
Exiting @ tick 1829331993500 because m5_exit instruction encountered
