
---------- Begin Simulation Statistics ----------
sim_seconds                                  2.854928                      
sim_ticks                                2854927627500                      
final_tick                               2854927627500                      
sim_freq                                 1000000000000                      
host_inst_rate                                 259896                      
host_op_rate                                   314233                      
host_tick_rate                             6638397944                      
host_mem_usage                                 597276                      
host_seconds                                   430.06                      
sim_insts                                   111771703                      
sim_ops                                     135139786                      
system.voltage_domain.voltage                       1                      
system.clk_domain.clock                          1000                      
system.physmem.pwrStateResidencyTicks::UNDEFINED 2854927627500                      
system.physmem.bytes_read::cpu.dtb.walker         6976                      
system.physmem.bytes_read::cpu.itb.walker          128                      
system.physmem.bytes_read::cpu.inst           1665856                      
system.physmem.bytes_read::cpu.data           9168876                      
system.physmem.bytes_read::realview.ide           960                      
system.physmem.bytes_read::total             10842796                      
system.physmem.bytes_inst_read::cpu.inst      1665856                      
system.physmem.bytes_inst_read::total         1665856                      
system.physmem.bytes_written::writebacks      7956992                      
system.physmem.bytes_written::cpu.data          17524                      
system.physmem.bytes_written::total           7974516                      
system.physmem.num_reads::cpu.dtb.walker          109                      
system.physmem.num_reads::cpu.itb.walker            2                      
system.physmem.num_reads::cpu.inst              26029                      
system.physmem.num_reads::cpu.data             143785                      
system.physmem.num_reads::realview.ide             15                      
system.physmem.num_reads::total                169940                      
system.physmem.num_writes::writebacks          124328                      
system.physmem.num_writes::cpu.data              4381                      
system.physmem.num_writes::total               128709                      
system.physmem.bw_read::cpu.dtb.walker           2443                      
system.physmem.bw_read::cpu.itb.walker             45                      
system.physmem.bw_read::cpu.inst               583502                      
system.physmem.bw_read::cpu.data              3211597                      
system.physmem.bw_read::realview.ide              336                      
system.physmem.bw_read::total                 3797923                      
system.physmem.bw_inst_read::cpu.inst          583502                      
system.physmem.bw_inst_read::total             583502                      
system.physmem.bw_write::writebacks           2787108                      
system.physmem.bw_write::cpu.data                6138                      
system.physmem.bw_write::total                2793246                      
system.physmem.bw_total::writebacks           2787108                      
system.physmem.bw_total::cpu.dtb.walker          2443                      
system.physmem.bw_total::cpu.itb.walker            45                      
system.physmem.bw_total::cpu.inst              583502                      
system.physmem.bw_total::cpu.data             3217735                      
system.physmem.bw_total::realview.ide             336                      
system.physmem.bw_total::total                6591170                      
system.physmem.readReqs                        169940                      
system.physmem.writeReqs                       128709                      
system.physmem.readBursts                      169940                      
system.physmem.writeBursts                     128709                      
system.physmem.bytesReadDRAM                 10867392                      
system.physmem.bytesReadWrQ                      8768                      
system.physmem.bytesWritten                   7987136                      
system.physmem.bytesReadSys                  10842796                      
system.physmem.bytesWrittenSys                7974516                      
system.physmem.servicedByWrQ                      137                      
system.physmem.mergedWrBursts                    3888                      
system.physmem.neitherReadNorWriteReqs              0                      
system.physmem.perBankRdBursts::0               10681                      
system.physmem.perBankRdBursts::1               10442                      
system.physmem.perBankRdBursts::2               10751                      
system.physmem.perBankRdBursts::3               10388                      
system.physmem.perBankRdBursts::4               13039                      
system.physmem.perBankRdBursts::5               10185                      
system.physmem.perBankRdBursts::6               10269                      
system.physmem.perBankRdBursts::7               10713                      
system.physmem.perBankRdBursts::8               10427                      
system.physmem.perBankRdBursts::9               10646                      
system.physmem.perBankRdBursts::10              10209                      
system.physmem.perBankRdBursts::11               9539                      
system.physmem.perBankRdBursts::12              10748                      
system.physmem.perBankRdBursts::13              11527                      
system.physmem.perBankRdBursts::14              10187                      
system.physmem.perBankRdBursts::15              10052                      
system.physmem.perBankWrBursts::0                7942                      
system.physmem.perBankWrBursts::1                7866                      
system.physmem.perBankWrBursts::2                8424                      
system.physmem.perBankWrBursts::3                7907                      
system.physmem.perBankWrBursts::4                7304                      
system.physmem.perBankWrBursts::5                7363                      
system.physmem.perBankWrBursts::6                7424                      
system.physmem.perBankWrBursts::7                7906                      
system.physmem.perBankWrBursts::8                7951                      
system.physmem.perBankWrBursts::9                8140                      
system.physmem.perBankWrBursts::10               7603                      
system.physmem.perBankWrBursts::11               7336                      
system.physmem.perBankWrBursts::12               8128                      
system.physmem.perBankWrBursts::13               8674                      
system.physmem.perBankWrBursts::14               7494                      
system.physmem.perBankWrBursts::15               7337                      
system.physmem.numRdRetry                           0                      
system.physmem.numWrRetry                          63                      
system.physmem.totGap                    2854927178000                      
system.physmem.readPktSize::0                       0                      
system.physmem.readPktSize::1                       0                      
system.physmem.readPktSize::2                     543                      
system.physmem.readPktSize::3                      14                      
system.physmem.readPktSize::4                       0                      
system.physmem.readPktSize::5                       0                      
system.physmem.readPktSize::6                  169383                      
system.physmem.writePktSize::0                      0                      
system.physmem.writePktSize::1                      0                      
system.physmem.writePktSize::2                   4381                      
system.physmem.writePktSize::3                      0                      
system.physmem.writePktSize::4                      0                      
system.physmem.writePktSize::5                      0                      
system.physmem.writePktSize::6                 124328                      
system.physmem.rdQLenPdf::0                    159867                      
system.physmem.rdQLenPdf::1                      9622                      
system.physmem.rdQLenPdf::2                       302                      
system.physmem.rdQLenPdf::3                         1                      
system.physmem.rdQLenPdf::4                         1                      
system.physmem.rdQLenPdf::5                         1                      
system.physmem.rdQLenPdf::6                         1                      
system.physmem.rdQLenPdf::7                         1                      
system.physmem.rdQLenPdf::8                         1                      
system.physmem.rdQLenPdf::9                         1                      
system.physmem.rdQLenPdf::10                        1                      
system.physmem.rdQLenPdf::11                        1                      
system.physmem.rdQLenPdf::12                        1                      
system.physmem.rdQLenPdf::13                        1                      
system.physmem.rdQLenPdf::14                        1                      
system.physmem.rdQLenPdf::15                        0                      
system.physmem.rdQLenPdf::16                        0                      
system.physmem.rdQLenPdf::17                        0                      
system.physmem.rdQLenPdf::18                        0                      
system.physmem.rdQLenPdf::19                        0                      
system.physmem.rdQLenPdf::20                        0                      
system.physmem.rdQLenPdf::21                        0                      
system.physmem.rdQLenPdf::22                        0                      
system.physmem.rdQLenPdf::23                        0                      
system.physmem.rdQLenPdf::24                        0                      
system.physmem.rdQLenPdf::25                        0                      
system.physmem.rdQLenPdf::26                        0                      
system.physmem.rdQLenPdf::27                        0                      
system.physmem.rdQLenPdf::28                        0                      
system.physmem.rdQLenPdf::29                        0                      
system.physmem.rdQLenPdf::30                        0                      
system.physmem.rdQLenPdf::31                        0                      
system.physmem.wrQLenPdf::0                         1                      
system.physmem.wrQLenPdf::1                         1                      
system.physmem.wrQLenPdf::2                         1                      
system.physmem.wrQLenPdf::3                         1                      
system.physmem.wrQLenPdf::4                         1                      
system.physmem.wrQLenPdf::5                         1                      
system.physmem.wrQLenPdf::6                         1                      
system.physmem.wrQLenPdf::7                         1                      
system.physmem.wrQLenPdf::8                         1                      
system.physmem.wrQLenPdf::9                         1                      
system.physmem.wrQLenPdf::10                        1                      
system.physmem.wrQLenPdf::11                        1                      
system.physmem.wrQLenPdf::12                        1                      
system.physmem.wrQLenPdf::13                        1                      
system.physmem.wrQLenPdf::14                        1                      
system.physmem.wrQLenPdf::15                     1807                      
system.physmem.wrQLenPdf::16                     2634                      
system.physmem.wrQLenPdf::17                     5993                      
system.physmem.wrQLenPdf::18                     6240                      
system.physmem.wrQLenPdf::19                     6528                      
system.physmem.wrQLenPdf::20                     6224                      
system.physmem.wrQLenPdf::21                     6599                      
system.physmem.wrQLenPdf::22                     6844                      
system.physmem.wrQLenPdf::23                     7638                      
system.physmem.wrQLenPdf::24                     7446                      
system.physmem.wrQLenPdf::25                     8542                      
system.physmem.wrQLenPdf::26                     8952                      
system.physmem.wrQLenPdf::27                     7381                      
system.physmem.wrQLenPdf::28                     7006                      
system.physmem.wrQLenPdf::29                     7076                      
system.physmem.wrQLenPdf::30                     6795                      
system.physmem.wrQLenPdf::31                     6597                      
system.physmem.wrQLenPdf::32                     6634                      
system.physmem.wrQLenPdf::33                      523                      
system.physmem.wrQLenPdf::34                      519                      
system.physmem.wrQLenPdf::35                      465                      
system.physmem.wrQLenPdf::36                      320                      
system.physmem.wrQLenPdf::37                      323                      
system.physmem.wrQLenPdf::38                      337                      
system.physmem.wrQLenPdf::39                      278                      
system.physmem.wrQLenPdf::40                      262                      
system.physmem.wrQLenPdf::41                      254                      
system.physmem.wrQLenPdf::42                      262                      
system.physmem.wrQLenPdf::43                      262                      
system.physmem.wrQLenPdf::44                      318                      
system.physmem.wrQLenPdf::45                      228                      
system.physmem.wrQLenPdf::46                      233                      
system.physmem.wrQLenPdf::47                      215                      
system.physmem.wrQLenPdf::48                      201                      
system.physmem.wrQLenPdf::49                      203                      
system.physmem.wrQLenPdf::50                      208                      
system.physmem.wrQLenPdf::51                      161                      
system.physmem.wrQLenPdf::52                      244                      
system.physmem.wrQLenPdf::53                      193                      
system.physmem.wrQLenPdf::54                      194                      
system.physmem.wrQLenPdf::55                      175                      
system.physmem.wrQLenPdf::56                      236                      
system.physmem.wrQLenPdf::57                      244                      
system.physmem.wrQLenPdf::58                      125                      
system.physmem.wrQLenPdf::59                      254                      
system.physmem.wrQLenPdf::60                      211                      
system.physmem.wrQLenPdf::61                      185                      
system.physmem.wrQLenPdf::62                       90                      
system.physmem.wrQLenPdf::63                      147                      
system.physmem.bytesPerActivate::samples        60375                      
system.physmem.bytesPerActivate::mean      312.289259                      
system.physmem.bytesPerActivate::gmean     185.250729                      
system.physmem.bytesPerActivate::stdev     329.192831                      
system.physmem.bytesPerActivate::0-127          21750     36.02%     36.02%
system.physmem.bytesPerActivate::128-255        14686     24.32%     60.35%
system.physmem.bytesPerActivate::256-383         6697     11.09%     71.44%
system.physmem.bytesPerActivate::384-511         3542      5.87%     77.31%
system.physmem.bytesPerActivate::512-639         2540      4.21%     81.52%
system.physmem.bytesPerActivate::640-767         1648      2.73%     84.25%
system.physmem.bytesPerActivate::768-895         1031      1.71%     85.95%
system.physmem.bytesPerActivate::896-1023         1005      1.66%     87.62%
system.physmem.bytesPerActivate::1024-1151         7476     12.38%    100.00%
system.physmem.bytesPerActivate::total          60375                      
system.physmem.rdPerTurnAround::samples          6174                      
system.physmem.rdPerTurnAround::mean        27.501944                      
system.physmem.rdPerTurnAround::stdev      583.476919                      
system.physmem.rdPerTurnAround::0-2047           6173     99.98%     99.98%
system.physmem.rdPerTurnAround::45056-47103            1      0.02%    100.00%
system.physmem.rdPerTurnAround::total            6174                      
system.physmem.wrPerTurnAround::samples          6174                      
system.physmem.wrPerTurnAround::mean        20.213638                      
system.physmem.wrPerTurnAround::gmean       18.315719                      
system.physmem.wrPerTurnAround::stdev       15.257991                      
system.physmem.wrPerTurnAround::16-19            5458     88.40%     88.40%
system.physmem.wrPerTurnAround::20-23              62      1.00%     89.41%
system.physmem.wrPerTurnAround::24-27              37      0.60%     90.01%
system.physmem.wrPerTurnAround::28-31              45      0.73%     90.74%
system.physmem.wrPerTurnAround::32-35             268      4.34%     95.08%
system.physmem.wrPerTurnAround::36-39              28      0.45%     95.53%
system.physmem.wrPerTurnAround::40-43              16      0.26%     95.79%
system.physmem.wrPerTurnAround::44-47              14      0.23%     96.02%
system.physmem.wrPerTurnAround::48-51               9      0.15%     96.16%
system.physmem.wrPerTurnAround::52-55               2      0.03%     96.19%
system.physmem.wrPerTurnAround::56-59               2      0.03%     96.23%
system.physmem.wrPerTurnAround::60-63               4      0.06%     96.29%
system.physmem.wrPerTurnAround::64-67             146      2.36%     98.66%
system.physmem.wrPerTurnAround::68-71               7      0.11%     98.77%
system.physmem.wrPerTurnAround::76-79               8      0.13%     98.90%
system.physmem.wrPerTurnAround::80-83               6      0.10%     99.00%
system.physmem.wrPerTurnAround::84-87               1      0.02%     99.01%
system.physmem.wrPerTurnAround::92-95               1      0.02%     99.03%
system.physmem.wrPerTurnAround::104-107             3      0.05%     99.08%
system.physmem.wrPerTurnAround::108-111             8      0.13%     99.21%
system.physmem.wrPerTurnAround::112-115             1      0.02%     99.22%
system.physmem.wrPerTurnAround::120-123             1      0.02%     99.24%
system.physmem.wrPerTurnAround::124-127             1      0.02%     99.25%
system.physmem.wrPerTurnAround::128-131            10      0.16%     99.42%
system.physmem.wrPerTurnAround::132-135             7      0.11%     99.53%
system.physmem.wrPerTurnAround::136-139             7      0.11%     99.64%
system.physmem.wrPerTurnAround::140-143             4      0.06%     99.71%
system.physmem.wrPerTurnAround::144-147             3      0.05%     99.76%
system.physmem.wrPerTurnAround::152-155             1      0.02%     99.77%
system.physmem.wrPerTurnAround::156-159             2      0.03%     99.81%
system.physmem.wrPerTurnAround::168-171             1      0.02%     99.82%
system.physmem.wrPerTurnAround::172-175             2      0.03%     99.85%
system.physmem.wrPerTurnAround::176-179             1      0.02%     99.87%
system.physmem.wrPerTurnAround::180-183             1      0.02%     99.89%
system.physmem.wrPerTurnAround::188-191             1      0.02%     99.90%
system.physmem.wrPerTurnAround::192-195             5      0.08%     99.98%
system.physmem.wrPerTurnAround::196-199             1      0.02%    100.00%
system.physmem.wrPerTurnAround::total            6174                      
system.physmem.totQLat                     4595611500                      
system.physmem.totMemAccLat                7779417750                      
system.physmem.totBusLat                    849015000                      
system.physmem.avgQLat                       27064.37                      
system.physmem.avgBusLat                      5000.00                      
system.physmem.avgMemAccLat                  45814.37                      
system.physmem.avgRdBW                           3.81                      
system.physmem.avgWrBW                           2.80                      
system.physmem.avgRdBWSys                        3.80                      
system.physmem.avgWrBWSys                        2.79                      
system.physmem.peakBW                        12800.00                      
system.physmem.busUtil                           0.05                      
system.physmem.busUtilRead                       0.03                      
system.physmem.busUtilWrite                      0.02                      
system.physmem.avgRdQLen                         1.01                      
system.physmem.avgWrQLen                        27.80                      
system.physmem.readRowHits                     140227                      
system.physmem.writeRowHits                     93999                      
system.physmem.readRowHitRate                   82.58                      
system.physmem.writeRowHitRate                  75.31                      
system.physmem.avgGap                      9559473.42                      
system.physmem.pageHitRate                      79.50                      
system.physmem_0.actEnergy                  217969920                      
system.physmem_0.preEnergy                  115853760                      
system.physmem_0.readEnergy                 617381520                      
system.physmem_0.writeEnergy                324349920                      
system.physmem_0.refreshEnergy           6032076960.000001                      
system.physmem_0.actBackEnergy             4594766580                      
system.physmem_0.preBackEnergy              373267680                      
system.physmem_0.actPowerDownEnergy       12534119310                      
system.physmem_0.prePowerDownEnergy        8428819680                      
system.physmem_0.selfRefreshEnergy       671880069150                      
system.physmem_0.totalEnergy             705122067060                      
system.physmem_0.averagePower              246.984218                      
system.physmem_0.totalIdleTime           2843538521500                      
system.physmem_0.memoryStateTime::IDLE      699213750                      
system.physmem_0.memoryStateTime::REF      2565056000                      
system.physmem_0.memoryStateTime::SREF   2794434653000                      
system.physmem_0.memoryStateTime::PRE_PDN  21950094250                      
system.physmem_0.memoryStateTime::ACT      7791322250                      
system.physmem_0.memoryStateTime::ACT_PDN  27487288250                      
system.physmem_1.actEnergy                  213114720                      
system.physmem_1.preEnergy                  113269365                      
system.physmem_1.readEnergy                 595011900                      
system.physmem_1.writeEnergy                327100860                      
system.physmem_1.refreshEnergy           6107677680.000001                      
system.physmem_1.actBackEnergy             4499395890                      
system.physmem_1.preBackEnergy              364524960                      
system.physmem_1.actPowerDownEnergy       12239824890                      
system.physmem_1.prePowerDownEnergy        8713020000                      
system.physmem_1.selfRefreshEnergy       671996557920                      
system.physmem_1.totalEnergy             705172962825                      
system.physmem_1.averagePower              247.002045                      
system.physmem_1.totalIdleTime           2844103397000                      
system.physmem_1.memoryStateTime::IDLE      682111750                      
system.physmem_1.memoryStateTime::REF      2597942000                      
system.physmem_1.memoryStateTime::SREF   2794571640750                      
system.physmem_1.memoryStateTime::PRE_PDN  22690140250                      
system.physmem_1.memoryStateTime::ACT      7544112250                      
system.physmem_1.memoryStateTime::ACT_PDN  26841680500                      
system.realview.nvmem.pwrStateResidencyTicks::UNDEFINED 2854927627500                      
system.realview.nvmem.bytes_read::cpu.inst          512                      
system.realview.nvmem.bytes_read::total           512                      
system.realview.nvmem.bytes_inst_read::cpu.inst          512                      
system.realview.nvmem.bytes_inst_read::total          512                      
system.realview.nvmem.num_reads::cpu.inst            8                      
system.realview.nvmem.num_reads::total              8                      
system.realview.nvmem.bw_read::cpu.inst           179                      
system.realview.nvmem.bw_read::total              179                      
system.realview.nvmem.bw_inst_read::cpu.inst          179                      
system.realview.nvmem.bw_inst_read::total          179                      
system.realview.nvmem.bw_total::cpu.inst          179                      
system.realview.nvmem.bw_total::total             179                      
system.realview.vram.pwrStateResidencyTicks::UNDEFINED 2854927627500                      
system.pwrStateResidencyTicks::UNDEFINED 2854927627500                      
system.bridge.pwrStateResidencyTicks::UNDEFINED 2854927627500                      
system.cf0.dma_read_full_pages                      0                      
system.cf0.dma_read_bytes                        1024                      
system.cf0.dma_read_txs                             1                      
system.cf0.dma_write_full_pages                   540                      
system.cf0.dma_write_bytes                    2318336                      
system.cf0.dma_write_txs                          631                      
system.cpu.branchPred.lookups                31061880                      
system.cpu.branchPred.condPredicted          16830353                      
system.cpu.branchPred.condIncorrect           2474418                      
system.cpu.branchPred.BTBLookups             18693305                      
system.cpu.branchPred.BTBHits                10411167                      
system.cpu.branchPred.BTBCorrect                    0                      
system.cpu.branchPred.BTBHitPct             55.694630                      
system.cpu.branchPred.usedRAS                 7903109                      
system.cpu.branchPred.RASInCorrect            1504989                      
system.cpu.branchPred.indirectLookups         3038231                      
system.cpu.branchPred.indirectHits            2848867                      
system.cpu.branchPred.indirectMisses           189364                      
system.cpu.branchPredindirectMispredicted       109645                      
system.cpu_clk_domain.clock                       500                      
system.cpu.dstage2_mmu.stage2_tlb.walker.pwrStateResidencyTicks::UNDEFINED 2854927627500                      
system.cpu.dstage2_mmu.stage2_tlb.walker.walks            0                      
system.cpu.dstage2_mmu.stage2_tlb.walker.walkRequestOrigin_Requested::Data            0                      
system.cpu.dstage2_mmu.stage2_tlb.walker.walkRequestOrigin_Requested::Inst            0                      
system.cpu.dstage2_mmu.stage2_tlb.walker.walkRequestOrigin_Requested::total            0                      
system.cpu.dstage2_mmu.stage2_tlb.walker.walkRequestOrigin_Completed::Data            0                      
system.cpu.dstage2_mmu.stage2_tlb.walker.walkRequestOrigin_Completed::Inst            0                      
system.cpu.dstage2_mmu.stage2_tlb.walker.walkRequestOrigin_Completed::total            0                      
system.cpu.dstage2_mmu.stage2_tlb.walker.walkRequestOrigin::total            0                      
system.cpu.dstage2_mmu.stage2_tlb.inst_hits            0                      
system.cpu.dstage2_mmu.stage2_tlb.inst_misses            0                      
system.cpu.dstage2_mmu.stage2_tlb.read_hits            0                      
system.cpu.dstage2_mmu.stage2_tlb.read_misses            0                      
system.cpu.dstage2_mmu.stage2_tlb.write_hits            0                      
system.cpu.dstage2_mmu.stage2_tlb.write_misses            0                      
system.cpu.dstage2_mmu.stage2_tlb.flush_tlb            0                      
system.cpu.dstage2_mmu.stage2_tlb.flush_tlb_mva            0                      
system.cpu.dstage2_mmu.stage2_tlb.flush_tlb_mva_asid            0                      
system.cpu.dstage2_mmu.stage2_tlb.flush_tlb_asid            0                      
system.cpu.dstage2_mmu.stage2_tlb.flush_entries            0                      
system.cpu.dstage2_mmu.stage2_tlb.align_faults            0                      
system.cpu.dstage2_mmu.stage2_tlb.prefetch_faults            0                      
system.cpu.dstage2_mmu.stage2_tlb.domain_faults            0                      
system.cpu.dstage2_mmu.stage2_tlb.perms_faults            0                      
system.cpu.dstage2_mmu.stage2_tlb.read_accesses            0                      
system.cpu.dstage2_mmu.stage2_tlb.write_accesses            0                      
system.cpu.dstage2_mmu.stage2_tlb.inst_accesses            0                      
system.cpu.dstage2_mmu.stage2_tlb.hits              0                      
system.cpu.dstage2_mmu.stage2_tlb.misses            0                      
system.cpu.dstage2_mmu.stage2_tlb.accesses            0                      
system.cpu.dtb.walker.pwrStateResidencyTicks::UNDEFINED 2854927627500                      
system.cpu.dtb.walker.walks                     67659                      
system.cpu.dtb.walker.walksShort                67659                      
system.cpu.dtb.walker.walksShortTerminationLevel::Level1        44567                      
system.cpu.dtb.walker.walksShortTerminationLevel::Level2        23092                      
system.cpu.dtb.walker.walkWaitTime::samples        67659                      
system.cpu.dtb.walker.walkWaitTime::0           67659    100.00%    100.00%
system.cpu.dtb.walker.walkWaitTime::total        67659                      
system.cpu.dtb.walker.walkCompletionTime::samples         7871                      
system.cpu.dtb.walker.walkCompletionTime::mean 10125.206454                      
system.cpu.dtb.walker.walkCompletionTime::gmean  8429.942657                      
system.cpu.dtb.walker.walkCompletionTime::stdev  9907.051248                      
system.cpu.dtb.walker.walkCompletionTime::0-65535         7864     99.91%     99.91%
system.cpu.dtb.walker.walkCompletionTime::65536-131071            4      0.05%     99.96%
system.cpu.dtb.walker.walkCompletionTime::196608-262143            2      0.03%     99.99%
system.cpu.dtb.walker.walkCompletionTime::589824-655359            1      0.01%    100.00%
system.cpu.dtb.walker.walkCompletionTime::total         7871                      
system.cpu.dtb.walker.walksPending::samples    276581000                      
system.cpu.dtb.walker.walksPending::0       276581000    100.00%    100.00%
system.cpu.dtb.walker.walksPending::total    276581000                      
system.cpu.dtb.walker.walkPageSizes::4K          6485     82.39%     82.39%
system.cpu.dtb.walker.walkPageSizes::1M          1386     17.61%    100.00%
system.cpu.dtb.walker.walkPageSizes::total         7871                      
system.cpu.dtb.walker.walkRequestOrigin_Requested::Data        67659                      
system.cpu.dtb.walker.walkRequestOrigin_Requested::Inst            0                      
system.cpu.dtb.walker.walkRequestOrigin_Requested::total        67659                      
system.cpu.dtb.walker.walkRequestOrigin_Completed::Data         7871                      
system.cpu.dtb.walker.walkRequestOrigin_Completed::Inst            0                      
system.cpu.dtb.walker.walkRequestOrigin_Completed::total         7871                      
system.cpu.dtb.walker.walkRequestOrigin::total        75530                      
system.cpu.dtb.inst_hits                            0                      
system.cpu.dtb.inst_misses                          0                      
system.cpu.dtb.read_hits                     24684864                      
system.cpu.dtb.read_misses                      60689                      
system.cpu.dtb.write_hits                    19405463                      
system.cpu.dtb.write_misses                      6970                      
system.cpu.dtb.flush_tlb                           64                      
system.cpu.dtb.flush_tlb_mva                      917                      
system.cpu.dtb.flush_tlb_mva_asid                   0                      
system.cpu.dtb.flush_tlb_asid                       0                      
system.cpu.dtb.flush_entries                     4278                      
system.cpu.dtb.align_faults                      1498                      
system.cpu.dtb.prefetch_faults                   1782                      
system.cpu.dtb.domain_faults                        0                      
system.cpu.dtb.perms_faults                       765                      
system.cpu.dtb.read_accesses                 24745553                      
system.cpu.dtb.write_accesses                19412433                      
system.cpu.dtb.inst_accesses                        0                      
system.cpu.dtb.hits                          44090327                      
system.cpu.dtb.misses                           67659                      
system.cpu.dtb.accesses                      44157986                      
system.cpu.istage2_mmu.stage2_tlb.walker.pwrStateResidencyTicks::UNDEFINED 2854927627500                      
system.cpu.istage2_mmu.stage2_tlb.walker.walks            0                      
system.cpu.istage2_mmu.stage2_tlb.walker.walkRequestOrigin_Requested::Data            0                      
system.cpu.istage2_mmu.stage2_tlb.walker.walkRequestOrigin_Requested::Inst            0                      
system.cpu.istage2_mmu.stage2_tlb.walker.walkRequestOrigin_Requested::total            0                      
system.cpu.istage2_mmu.stage2_tlb.walker.walkRequestOrigin_Completed::Data            0                      
system.cpu.istage2_mmu.stage2_tlb.walker.walkRequestOrigin_Completed::Inst            0                      
system.cpu.istage2_mmu.stage2_tlb.walker.walkRequestOrigin_Completed::total            0                      
system.cpu.istage2_mmu.stage2_tlb.walker.walkRequestOrigin::total            0                      
system.cpu.istage2_mmu.stage2_tlb.inst_hits            0                      
system.cpu.istage2_mmu.stage2_tlb.inst_misses            0                      
system.cpu.istage2_mmu.stage2_tlb.read_hits            0                      
system.cpu.istage2_mmu.stage2_tlb.read_misses            0                      
system.cpu.istage2_mmu.stage2_tlb.write_hits            0                      
system.cpu.istage2_mmu.stage2_tlb.write_misses            0                      
system.cpu.istage2_mmu.stage2_tlb.flush_tlb            0                      
system.cpu.istage2_mmu.stage2_tlb.flush_tlb_mva            0                      
system.cpu.istage2_mmu.stage2_tlb.flush_tlb_mva_asid            0                      
system.cpu.istage2_mmu.stage2_tlb.flush_tlb_asid            0                      
system.cpu.istage2_mmu.stage2_tlb.flush_entries            0                      
system.cpu.istage2_mmu.stage2_tlb.align_faults            0                      
system.cpu.istage2_mmu.stage2_tlb.prefetch_faults            0                      
system.cpu.istage2_mmu.stage2_tlb.domain_faults            0                      
system.cpu.istage2_mmu.stage2_tlb.perms_faults            0                      
system.cpu.istage2_mmu.stage2_tlb.read_accesses            0                      
system.cpu.istage2_mmu.stage2_tlb.write_accesses            0                      
system.cpu.istage2_mmu.stage2_tlb.inst_accesses            0                      
system.cpu.istage2_mmu.stage2_tlb.hits              0                      
system.cpu.istage2_mmu.stage2_tlb.misses            0                      
system.cpu.istage2_mmu.stage2_tlb.accesses            0                      
system.cpu.itb.walker.pwrStateResidencyTicks::UNDEFINED 2854927627500                      
system.cpu.itb.walker.walks                      5834                      
system.cpu.itb.walker.walksShort                 5834                      
system.cpu.itb.walker.walksShortTerminationLevel::Level1          322                      
system.cpu.itb.walker.walksShortTerminationLevel::Level2         5512                      
system.cpu.itb.walker.walkWaitTime::samples         5834                      
system.cpu.itb.walker.walkWaitTime::0            5834    100.00%    100.00%
system.cpu.itb.walker.walkWaitTime::total         5834                      
system.cpu.itb.walker.walkCompletionTime::samples         3212                      
system.cpu.itb.walker.walkCompletionTime::mean 10503.424658                      
system.cpu.itb.walker.walkCompletionTime::gmean  8675.185995                      
system.cpu.itb.walker.walkCompletionTime::stdev  6953.542108                      
system.cpu.itb.walker.walkCompletionTime::0-8191         1846     57.47%     57.47%
system.cpu.itb.walker.walkCompletionTime::8192-16383          802     24.97%     82.44%
system.cpu.itb.walker.walkCompletionTime::16384-24575          556     17.31%     99.75%
system.cpu.itb.walker.walkCompletionTime::24576-32767            7      0.22%     99.97%
system.cpu.itb.walker.walkCompletionTime::90112-98303            1      0.03%    100.00%
system.cpu.itb.walker.walkCompletionTime::total         3212                      
system.cpu.itb.walker.walksPending::samples    276141500                      
system.cpu.itb.walker.walksPending::0       276141500    100.00%    100.00%
system.cpu.itb.walker.walksPending::total    276141500                      
system.cpu.itb.walker.walkPageSizes::4K          2902     90.35%     90.35%
system.cpu.itb.walker.walkPageSizes::1M           310      9.65%    100.00%
system.cpu.itb.walker.walkPageSizes::total         3212                      
system.cpu.itb.walker.walkRequestOrigin_Requested::Data            0                      
system.cpu.itb.walker.walkRequestOrigin_Requested::Inst         5834                      
system.cpu.itb.walker.walkRequestOrigin_Requested::total         5834                      
system.cpu.itb.walker.walkRequestOrigin_Completed::Data            0                      
system.cpu.itb.walker.walkRequestOrigin_Completed::Inst         3212                      
system.cpu.itb.walker.walkRequestOrigin_Completed::total         3212                      
system.cpu.itb.walker.walkRequestOrigin::total         9046                      
system.cpu.itb.inst_hits                     57493677                      
system.cpu.itb.inst_misses                       5834                      
system.cpu.itb.read_hits                            0                      
system.cpu.itb.read_misses                          0                      
system.cpu.itb.write_hits                           0                      
system.cpu.itb.write_misses                         0                      
system.cpu.itb.flush_tlb                           64                      
system.cpu.itb.flush_tlb_mva                      917                      
system.cpu.itb.flush_tlb_mva_asid                   0                      
system.cpu.itb.flush_tlb_asid                       0                      
system.cpu.itb.flush_entries                     2927                      
system.cpu.itb.align_faults                         0                      
system.cpu.itb.prefetch_faults                      0                      
system.cpu.itb.domain_faults                        0                      
system.cpu.itb.perms_faults                      8355                      
system.cpu.itb.read_accesses                        0                      
system.cpu.itb.write_accesses                       0                      
system.cpu.itb.inst_accesses                 57499511                      
system.cpu.itb.hits                          57493677                      
system.cpu.itb.misses                            5834                      
system.cpu.itb.accesses                      57499511                      
system.cpu.numPwrStateTransitions                6066                      
system.cpu.pwrStateClkGateDist::samples          3033                      
system.cpu.pwrStateClkGateDist::mean     887944417.634355                      
system.cpu.pwrStateClkGateDist::stdev    17437789844.803165                      
system.cpu.pwrStateClkGateDist::underflows         2969     97.89%     97.89%
system.cpu.pwrStateClkGateDist::1000-5e+10           58      1.91%     99.80%
system.cpu.pwrStateClkGateDist::1.5e+11-2e+11            1      0.03%     99.84%
system.cpu.pwrStateClkGateDist::2e+11-2.5e+11            1      0.03%     99.87%
system.cpu.pwrStateClkGateDist::2.5e+11-3e+11            1      0.03%     99.90%
system.cpu.pwrStateClkGateDist::4.5e+11-5e+11            3      0.10%    100.00%
system.cpu.pwrStateClkGateDist::min_value          501                      
system.cpu.pwrStateClkGateDist::max_value 499967984888                      
system.cpu.pwrStateClkGateDist::total            3033                      
system.cpu.pwrStateResidencyTicks::ON    161792208815                      
system.cpu.pwrStateResidencyTicks::CLK_GATED 2693135418685                      
system.cpu.numCycles                        323587374                      
system.cpu.numWorkItemsStarted                      0                      
system.cpu.numWorkItemsCompleted                    0                      
system.cpu.committedInsts                   111771703                      
system.cpu.committedOps                     135139786                      
system.cpu.discardedOps                       7780501                      
system.cpu.numFetchSuspends                      3033                      
system.cpu.quiesceCycles                   5386332607                      
system.cpu.cpi                               2.895074                      
system.cpu.ipc                               0.345414                      
system.cpu.op_class_0::No_OpClass                2337      0.00%      0.00%
system.cpu.op_class_0::IntAlu                90588447     67.03%     67.03%
system.cpu.op_class_0::IntMult                 113124      0.08%     67.12%
system.cpu.op_class_0::IntDiv                       0      0.00%     67.12%
system.cpu.op_class_0::FloatAdd                     0      0.00%     67.12%
system.cpu.op_class_0::FloatCmp                     0      0.00%     67.12%
system.cpu.op_class_0::FloatCvt                     0      0.00%     67.12%
system.cpu.op_class_0::FloatMult                    0      0.00%     67.12%
system.cpu.op_class_0::FloatMultAcc                 0      0.00%     67.12%
system.cpu.op_class_0::FloatDiv                     0      0.00%     67.12%
system.cpu.op_class_0::FloatMisc                    0      0.00%     67.12%
system.cpu.op_class_0::FloatSqrt                    0      0.00%     67.12%
system.cpu.op_class_0::SimdAdd                      0      0.00%     67.12%
system.cpu.op_class_0::SimdAddAcc                   0      0.00%     67.12%
system.cpu.op_class_0::SimdAlu                      0      0.00%     67.12%
system.cpu.op_class_0::SimdCmp                      0      0.00%     67.12%
system.cpu.op_class_0::SimdCvt                      0      0.00%     67.12%
system.cpu.op_class_0::SimdMisc                     0      0.00%     67.12%
system.cpu.op_class_0::SimdMult                     0      0.00%     67.12%
system.cpu.op_class_0::SimdMultAcc                  0      0.00%     67.12%
system.cpu.op_class_0::SimdShift                    0      0.00%     67.12%
system.cpu.op_class_0::SimdShiftAcc                 0      0.00%     67.12%
system.cpu.op_class_0::SimdSqrt                     0      0.00%     67.12%
system.cpu.op_class_0::SimdFloatAdd                 0      0.00%     67.12%
system.cpu.op_class_0::SimdFloatAlu                 0      0.00%     67.12%
system.cpu.op_class_0::SimdFloatCmp                 0      0.00%     67.12%
system.cpu.op_class_0::SimdFloatCvt                 0      0.00%     67.12%
system.cpu.op_class_0::SimdFloatDiv                 0      0.00%     67.12%
system.cpu.op_class_0::SimdFloatMisc             8479      0.01%     67.12%
system.cpu.op_class_0::SimdFloatMult                0      0.00%     67.12%
system.cpu.op_class_0::SimdFloatMultAcc             0      0.00%     67.12%
system.cpu.op_class_0::SimdFloatSqrt                0      0.00%     67.12%
system.cpu.op_class_0::MemRead               24191569     17.90%     85.03%
system.cpu.op_class_0::MemWrite              20224534     14.97%     99.99%
system.cpu.op_class_0::FloatMemRead              2708      0.00%     99.99%
system.cpu.op_class_0::FloatMemWrite             8588      0.01%    100.00%
system.cpu.op_class_0::IprAccess                    0      0.00%    100.00%
system.cpu.op_class_0::InstPrefetch                 0      0.00%    100.00%
system.cpu.op_class_0::total                135139786                      
system.cpu.kern.inst.arm                            0                      
system.cpu.kern.inst.quiesce                     3033                      
system.cpu.tickCycles                       217929622                      
system.cpu.idleCycles                       105657752                      
system.cpu.dcache.tags.pwrStateResidencyTicks::UNDEFINED 2854927627500                      
system.cpu.dcache.tags.replacements            844447                      
system.cpu.dcache.tags.tagsinuse           511.945153                      
system.cpu.dcache.tags.total_refs            42548483                      
system.cpu.dcache.tags.sampled_refs            844959                      
system.cpu.dcache.tags.avg_refs             50.355678                      
system.cpu.dcache.tags.warmup_cycle         330588500                      
system.cpu.dcache.tags.occ_blocks::cpu.data   511.945153                      
system.cpu.dcache.tags.occ_percent::cpu.data     0.999893                      
system.cpu.dcache.tags.occ_percent::total     0.999893                      
system.cpu.dcache.tags.occ_task_id_blocks::1024          512                      
system.cpu.dcache.tags.age_task_id_blocks_1024::0           94                      
system.cpu.dcache.tags.age_task_id_blocks_1024::1          360                      
system.cpu.dcache.tags.age_task_id_blocks_1024::2           58                      
system.cpu.dcache.tags.occ_task_id_percent::1024            1                      
system.cpu.dcache.tags.tag_accesses         175848001                      
system.cpu.dcache.tags.data_accesses        175848001                      
system.cpu.dcache.pwrStateResidencyTicks::UNDEFINED 2854927627500                      
system.cpu.dcache.ReadReq_hits::cpu.data     23041668                      
system.cpu.dcache.ReadReq_hits::total        23041668                      
system.cpu.dcache.WriteReq_hits::cpu.data     18243760                      
system.cpu.dcache.WriteReq_hits::total       18243760                      
system.cpu.dcache.SoftPFReq_hits::cpu.data       357146                      
system.cpu.dcache.SoftPFReq_hits::total        357146                      
system.cpu.dcache.LoadLockedReq_hits::cpu.data       443213                      
system.cpu.dcache.LoadLockedReq_hits::total       443213                      
system.cpu.dcache.StoreCondReq_hits::cpu.data       459828                      
system.cpu.dcache.StoreCondReq_hits::total       459828                      
system.cpu.dcache.demand_hits::cpu.data      41285428                      
system.cpu.dcache.demand_hits::total         41285428                      
system.cpu.dcache.overall_hits::cpu.data     41642574                      
system.cpu.dcache.overall_hits::total        41642574                      
system.cpu.dcache.ReadReq_misses::cpu.data       464854                      
system.cpu.dcache.ReadReq_misses::total        464854                      
system.cpu.dcache.WriteReq_misses::cpu.data       548525                      
system.cpu.dcache.WriteReq_misses::total       548525                      
system.cpu.dcache.SoftPFReq_misses::cpu.data       169352                      
system.cpu.dcache.SoftPFReq_misses::total       169352                      
system.cpu.dcache.LoadLockedReq_misses::cpu.data        22406                      
system.cpu.dcache.LoadLockedReq_misses::total        22406                      
system.cpu.dcache.StoreCondReq_misses::cpu.data            2                      
system.cpu.dcache.StoreCondReq_misses::total            2                      
system.cpu.dcache.demand_misses::cpu.data      1013379                      
system.cpu.dcache.demand_misses::total        1013379                      
system.cpu.dcache.overall_misses::cpu.data      1182731                      
system.cpu.dcache.overall_misses::total       1182731                      
system.cpu.dcache.ReadReq_miss_latency::cpu.data   7330473500                      
system.cpu.dcache.ReadReq_miss_latency::total   7330473500                      
system.cpu.dcache.WriteReq_miss_latency::cpu.data  26773562480                      
system.cpu.dcache.WriteReq_miss_latency::total  26773562480                      
system.cpu.dcache.LoadLockedReq_miss_latency::cpu.data    304848500                      
system.cpu.dcache.LoadLockedReq_miss_latency::total    304848500                      
system.cpu.dcache.StoreCondReq_miss_latency::cpu.data       171000                      
system.cpu.dcache.StoreCondReq_miss_latency::total       171000                      
system.cpu.dcache.demand_miss_latency::cpu.data  34104035980                      
system.cpu.dcache.demand_miss_latency::total  34104035980                      
system.cpu.dcache.overall_miss_latency::cpu.data  34104035980                      
system.cpu.dcache.overall_miss_latency::total  34104035980                      
system.cpu.dcache.ReadReq_accesses::cpu.data     23506522                      
system.cpu.dcache.ReadReq_accesses::total     23506522                      
system.cpu.dcache.WriteReq_accesses::cpu.data     18792285                      
system.cpu.dcache.WriteReq_accesses::total     18792285                      
system.cpu.dcache.SoftPFReq_accesses::cpu.data       526498                      
system.cpu.dcache.SoftPFReq_accesses::total       526498                      
system.cpu.dcache.LoadLockedReq_accesses::cpu.data       465619                      
system.cpu.dcache.LoadLockedReq_accesses::total       465619                      
system.cpu.dcache.StoreCondReq_accesses::cpu.data       459830                      
system.cpu.dcache.StoreCondReq_accesses::total       459830                      
system.cpu.dcache.demand_accesses::cpu.data     42298807                      
system.cpu.dcache.demand_accesses::total     42298807                      
system.cpu.dcache.overall_accesses::cpu.data     42825305                      
system.cpu.dcache.overall_accesses::total     42825305                      
system.cpu.dcache.ReadReq_miss_rate::cpu.data     0.019776                      
system.cpu.dcache.ReadReq_miss_rate::total     0.019776                      
system.cpu.dcache.WriteReq_miss_rate::cpu.data     0.029189                      
system.cpu.dcache.WriteReq_miss_rate::total     0.029189                      
system.cpu.dcache.SoftPFReq_miss_rate::cpu.data     0.321657                      
system.cpu.dcache.SoftPFReq_miss_rate::total     0.321657                      
system.cpu.dcache.LoadLockedReq_miss_rate::cpu.data     0.048121                      
system.cpu.dcache.LoadLockedReq_miss_rate::total     0.048121                      
system.cpu.dcache.StoreCondReq_miss_rate::cpu.data     0.000004                      
system.cpu.dcache.StoreCondReq_miss_rate::total     0.000004                      
system.cpu.dcache.demand_miss_rate::cpu.data     0.023958                      
system.cpu.dcache.demand_miss_rate::total     0.023958                      
system.cpu.dcache.overall_miss_rate::cpu.data     0.027618                      
system.cpu.dcache.overall_miss_rate::total     0.027618                      
system.cpu.dcache.ReadReq_avg_miss_latency::cpu.data 15769.410396                      
system.cpu.dcache.ReadReq_avg_miss_latency::total 15769.410396                      
system.cpu.dcache.WriteReq_avg_miss_latency::cpu.data 48810.104334                      
system.cpu.dcache.WriteReq_avg_miss_latency::total 48810.104334                      
system.cpu.dcache.LoadLockedReq_avg_miss_latency::cpu.data 13605.663662                      
system.cpu.dcache.LoadLockedReq_avg_miss_latency::total 13605.663662                      
system.cpu.dcache.StoreCondReq_avg_miss_latency::cpu.data        85500                      
system.cpu.dcache.StoreCondReq_avg_miss_latency::total        85500                      
system.cpu.dcache.demand_avg_miss_latency::cpu.data 33653.782030                      
system.cpu.dcache.demand_avg_miss_latency::total 33653.782030                      
system.cpu.dcache.overall_avg_miss_latency::cpu.data 28834.989512                      
system.cpu.dcache.overall_avg_miss_latency::total 28834.989512                      
system.cpu.dcache.blocked_cycles::no_mshrs          210                      
system.cpu.dcache.blocked_cycles::no_targets            0                      
system.cpu.dcache.blocked::no_mshrs                21                      
system.cpu.dcache.blocked::no_targets               0                      
system.cpu.dcache.avg_blocked_cycles::no_mshrs           10                      
system.cpu.dcache.avg_blocked_cycles::no_targets          nan                      
system.cpu.dcache.writebacks::writebacks       701832                      
system.cpu.dcache.writebacks::total            701832                      
system.cpu.dcache.ReadReq_mshr_hits::cpu.data        45599                      
system.cpu.dcache.ReadReq_mshr_hits::total        45599                      
system.cpu.dcache.WriteReq_mshr_hits::cpu.data       249413                      
system.cpu.dcache.WriteReq_mshr_hits::total       249413                      
system.cpu.dcache.LoadLockedReq_mshr_hits::cpu.data        14207                      
system.cpu.dcache.LoadLockedReq_mshr_hits::total        14207                      
system.cpu.dcache.demand_mshr_hits::cpu.data       295012                      
system.cpu.dcache.demand_mshr_hits::total       295012                      
system.cpu.dcache.overall_mshr_hits::cpu.data       295012                      
system.cpu.dcache.overall_mshr_hits::total       295012                      
system.cpu.dcache.ReadReq_mshr_misses::cpu.data       419255                      
system.cpu.dcache.ReadReq_mshr_misses::total       419255                      
system.cpu.dcache.WriteReq_mshr_misses::cpu.data       299112                      
system.cpu.dcache.WriteReq_mshr_misses::total       299112                      
system.cpu.dcache.SoftPFReq_mshr_misses::cpu.data       121209                      
system.cpu.dcache.SoftPFReq_mshr_misses::total       121209                      
system.cpu.dcache.LoadLockedReq_mshr_misses::cpu.data         8199                      
system.cpu.dcache.LoadLockedReq_mshr_misses::total         8199                      
system.cpu.dcache.StoreCondReq_mshr_misses::cpu.data            2                      
system.cpu.dcache.StoreCondReq_mshr_misses::total            2                      
system.cpu.dcache.demand_mshr_misses::cpu.data       718367                      
system.cpu.dcache.demand_mshr_misses::total       718367                      
system.cpu.dcache.overall_mshr_misses::cpu.data       839576                      
system.cpu.dcache.overall_mshr_misses::total       839576                      
system.cpu.dcache.ReadReq_mshr_uncacheable::cpu.data        31110                      
system.cpu.dcache.ReadReq_mshr_uncacheable::total        31110                      
system.cpu.dcache.WriteReq_mshr_uncacheable::cpu.data        27574                      
system.cpu.dcache.WriteReq_mshr_uncacheable::total        27574                      
system.cpu.dcache.overall_mshr_uncacheable_misses::cpu.data        58684                      
system.cpu.dcache.overall_mshr_uncacheable_misses::total        58684                      
system.cpu.dcache.ReadReq_mshr_miss_latency::cpu.data   6445053500                      
system.cpu.dcache.ReadReq_mshr_miss_latency::total   6445053500                      
system.cpu.dcache.WriteReq_mshr_miss_latency::cpu.data  14252180000                      
system.cpu.dcache.WriteReq_mshr_miss_latency::total  14252180000                      
system.cpu.dcache.SoftPFReq_mshr_miss_latency::cpu.data   1665054500                      
system.cpu.dcache.SoftPFReq_mshr_miss_latency::total   1665054500                      
system.cpu.dcache.LoadLockedReq_mshr_miss_latency::cpu.data    118677000                      
system.cpu.dcache.LoadLockedReq_mshr_miss_latency::total    118677000                      
system.cpu.dcache.StoreCondReq_mshr_miss_latency::cpu.data       169000                      
system.cpu.dcache.StoreCondReq_mshr_miss_latency::total       169000                      
system.cpu.dcache.demand_mshr_miss_latency::cpu.data  20697233500                      
system.cpu.dcache.demand_mshr_miss_latency::total  20697233500                      
system.cpu.dcache.overall_mshr_miss_latency::cpu.data  22362288000                      
system.cpu.dcache.overall_mshr_miss_latency::total  22362288000                      
system.cpu.dcache.ReadReq_mshr_uncacheable_latency::cpu.data   6302505000                      
system.cpu.dcache.ReadReq_mshr_uncacheable_latency::total   6302505000                      
system.cpu.dcache.overall_mshr_uncacheable_latency::cpu.data   6302505000                      
system.cpu.dcache.overall_mshr_uncacheable_latency::total   6302505000                      
system.cpu.dcache.ReadReq_mshr_miss_rate::cpu.data     0.017836                      
system.cpu.dcache.ReadReq_mshr_miss_rate::total     0.017836                      
system.cpu.dcache.WriteReq_mshr_miss_rate::cpu.data     0.015917                      
system.cpu.dcache.WriteReq_mshr_miss_rate::total     0.015917                      
system.cpu.dcache.SoftPFReq_mshr_miss_rate::cpu.data     0.230217                      
system.cpu.dcache.SoftPFReq_mshr_miss_rate::total     0.230217                      
system.cpu.dcache.LoadLockedReq_mshr_miss_rate::cpu.data     0.017609                      
system.cpu.dcache.LoadLockedReq_mshr_miss_rate::total     0.017609                      
system.cpu.dcache.StoreCondReq_mshr_miss_rate::cpu.data     0.000004                      
system.cpu.dcache.StoreCondReq_mshr_miss_rate::total     0.000004                      
system.cpu.dcache.demand_mshr_miss_rate::cpu.data     0.016983                      
system.cpu.dcache.demand_mshr_miss_rate::total     0.016983                      
system.cpu.dcache.overall_mshr_miss_rate::cpu.data     0.019605                      
system.cpu.dcache.overall_mshr_miss_rate::total     0.019605                      
system.cpu.dcache.ReadReq_avg_mshr_miss_latency::cpu.data 15372.633600                      
system.cpu.dcache.ReadReq_avg_mshr_miss_latency::total 15372.633600                      
system.cpu.dcache.WriteReq_avg_mshr_miss_latency::cpu.data 47648.305651                      
system.cpu.dcache.WriteReq_avg_mshr_miss_latency::total 47648.305651                      
system.cpu.dcache.SoftPFReq_avg_mshr_miss_latency::cpu.data 13737.053354                      
system.cpu.dcache.SoftPFReq_avg_mshr_miss_latency::total 13737.053354                      
system.cpu.dcache.LoadLockedReq_avg_mshr_miss_latency::cpu.data 14474.570070                      
system.cpu.dcache.LoadLockedReq_avg_mshr_miss_latency::total 14474.570070                      
system.cpu.dcache.StoreCondReq_avg_mshr_miss_latency::cpu.data        84500                      
system.cpu.dcache.StoreCondReq_avg_mshr_miss_latency::total        84500                      
system.cpu.dcache.demand_avg_mshr_miss_latency::cpu.data 28811.503730                      
system.cpu.dcache.demand_avg_mshr_miss_latency::total 28811.503730                      
system.cpu.dcache.overall_avg_mshr_miss_latency::cpu.data 26635.215871                      
system.cpu.dcache.overall_avg_mshr_miss_latency::total 26635.215871                      
system.cpu.dcache.ReadReq_avg_mshr_uncacheable_latency::cpu.data 202587.753134                      
system.cpu.dcache.ReadReq_avg_mshr_uncacheable_latency::total 202587.753134                      
system.cpu.dcache.overall_avg_mshr_uncacheable_latency::cpu.data 107397.331470                      
system.cpu.dcache.overall_avg_mshr_uncacheable_latency::total 107397.331470                      
system.cpu.icache.tags.pwrStateResidencyTicks::UNDEFINED 2854927627500                      
system.cpu.icache.tags.replacements           2889221                      
system.cpu.icache.tags.tagsinuse           511.371129                      
system.cpu.icache.tags.total_refs            54595271                      
system.cpu.icache.tags.sampled_refs           2889733                      
system.cpu.icache.tags.avg_refs             18.892843                      
system.cpu.icache.tags.warmup_cycle       16096310500                      
system.cpu.icache.tags.occ_blocks::cpu.inst   511.371129                      
system.cpu.icache.tags.occ_percent::cpu.inst     0.998772                      
system.cpu.icache.tags.occ_percent::total     0.998772                      
system.cpu.icache.tags.occ_task_id_blocks::1024          512                      
system.cpu.icache.tags.age_task_id_blocks_1024::0          101                      
system.cpu.icache.tags.age_task_id_blocks_1024::1          214                      
system.cpu.icache.tags.age_task_id_blocks_1024::2          197                      
system.cpu.icache.tags.occ_task_id_percent::1024            1                      
system.cpu.icache.tags.tag_accesses          60374760                      
system.cpu.icache.tags.data_accesses         60374760                      
system.cpu.icache.pwrStateResidencyTicks::UNDEFINED 2854927627500                      
system.cpu.icache.ReadReq_hits::cpu.inst     54595271                      
system.cpu.icache.ReadReq_hits::total        54595271                      
system.cpu.icache.demand_hits::cpu.inst      54595271                      
system.cpu.icache.demand_hits::total         54595271                      
system.cpu.icache.overall_hits::cpu.inst     54595271                      
system.cpu.icache.overall_hits::total        54595271                      
system.cpu.icache.ReadReq_misses::cpu.inst      2889745                      
system.cpu.icache.ReadReq_misses::total       2889745                      
system.cpu.icache.demand_misses::cpu.inst      2889745                      
system.cpu.icache.demand_misses::total        2889745                      
system.cpu.icache.overall_misses::cpu.inst      2889745                      
system.cpu.icache.overall_misses::total       2889745                      
system.cpu.icache.ReadReq_miss_latency::cpu.inst  39793127500                      
system.cpu.icache.ReadReq_miss_latency::total  39793127500                      
system.cpu.icache.demand_miss_latency::cpu.inst  39793127500                      
system.cpu.icache.demand_miss_latency::total  39793127500                      
system.cpu.icache.overall_miss_latency::cpu.inst  39793127500                      
system.cpu.icache.overall_miss_latency::total  39793127500                      
system.cpu.icache.ReadReq_accesses::cpu.inst     57485016                      
system.cpu.icache.ReadReq_accesses::total     57485016                      
system.cpu.icache.demand_accesses::cpu.inst     57485016                      
system.cpu.icache.demand_accesses::total     57485016                      
system.cpu.icache.overall_accesses::cpu.inst     57485016                      
system.cpu.icache.overall_accesses::total     57485016                      
system.cpu.icache.ReadReq_miss_rate::cpu.inst     0.050270                      
system.cpu.icache.ReadReq_miss_rate::total     0.050270                      
system.cpu.icache.demand_miss_rate::cpu.inst     0.050270                      
system.cpu.icache.demand_miss_rate::total     0.050270                      
system.cpu.icache.overall_miss_rate::cpu.inst     0.050270                      
system.cpu.icache.overall_miss_rate::total     0.050270                      
system.cpu.icache.ReadReq_avg_miss_latency::cpu.inst 13770.463311                      
system.cpu.icache.ReadReq_avg_miss_latency::total 13770.463311                      
system.cpu.icache.demand_avg_miss_latency::cpu.inst 13770.463311                      
system.cpu.icache.demand_avg_miss_latency::total 13770.463311                      
system.cpu.icache.overall_avg_miss_latency::cpu.inst 13770.463311                      
system.cpu.icache.overall_avg_miss_latency::total 13770.463311                      
system.cpu.icache.blocked_cycles::no_mshrs            0                      
system.cpu.icache.blocked_cycles::no_targets            0                      
system.cpu.icache.blocked::no_mshrs                 0                      
system.cpu.icache.blocked::no_targets               0                      
system.cpu.icache.avg_blocked_cycles::no_mshrs          nan                      
system.cpu.icache.avg_blocked_cycles::no_targets          nan                      
system.cpu.icache.writebacks::writebacks      2889221                      
system.cpu.icache.writebacks::total           2889221                      
system.cpu.icache.ReadReq_mshr_misses::cpu.inst      2889745                      
system.cpu.icache.ReadReq_mshr_misses::total      2889745                      
system.cpu.icache.demand_mshr_misses::cpu.inst      2889745                      
system.cpu.icache.demand_mshr_misses::total      2889745                      
system.cpu.icache.overall_mshr_misses::cpu.inst      2889745                      
system.cpu.icache.overall_mshr_misses::total      2889745                      
system.cpu.icache.ReadReq_mshr_uncacheable::cpu.inst         3119                      
system.cpu.icache.ReadReq_mshr_uncacheable::total         3119                      
system.cpu.icache.overall_mshr_uncacheable_misses::cpu.inst         3119                      
system.cpu.icache.overall_mshr_uncacheable_misses::total         3119                      
system.cpu.icache.ReadReq_mshr_miss_latency::cpu.inst  36903383500                      
system.cpu.icache.ReadReq_mshr_miss_latency::total  36903383500                      
system.cpu.icache.demand_mshr_miss_latency::cpu.inst  36903383500                      
system.cpu.icache.demand_mshr_miss_latency::total  36903383500                      
system.cpu.icache.overall_mshr_miss_latency::cpu.inst  36903383500                      
system.cpu.icache.overall_mshr_miss_latency::total  36903383500                      
system.cpu.icache.ReadReq_mshr_uncacheable_latency::cpu.inst    265216500                      
system.cpu.icache.ReadReq_mshr_uncacheable_latency::total    265216500                      
system.cpu.icache.overall_mshr_uncacheable_latency::cpu.inst    265216500                      
system.cpu.icache.overall_mshr_uncacheable_latency::total    265216500                      
system.cpu.icache.ReadReq_mshr_miss_rate::cpu.inst     0.050270                      
system.cpu.icache.ReadReq_mshr_miss_rate::total     0.050270                      
system.cpu.icache.demand_mshr_miss_rate::cpu.inst     0.050270                      
system.cpu.icache.demand_mshr_miss_rate::total     0.050270                      
system.cpu.icache.overall_mshr_miss_rate::cpu.inst     0.050270                      
system.cpu.icache.overall_mshr_miss_rate::total     0.050270                      
system.cpu.icache.ReadReq_avg_mshr_miss_latency::cpu.inst 12770.463657                      
system.cpu.icache.ReadReq_avg_mshr_miss_latency::total 12770.463657                      
system.cpu.icache.demand_avg_mshr_miss_latency::cpu.inst 12770.463657                      
system.cpu.icache.demand_avg_mshr_miss_latency::total 12770.463657                      
system.cpu.icache.overall_avg_mshr_miss_latency::cpu.inst 12770.463657                      
system.cpu.icache.overall_avg_mshr_miss_latency::total 12770.463657                      
system.cpu.icache.ReadReq_avg_mshr_uncacheable_latency::cpu.inst 85032.542482                      
system.cpu.icache.ReadReq_avg_mshr_uncacheable_latency::total 85032.542482                      
system.cpu.icache.overall_avg_mshr_uncacheable_latency::cpu.inst 85032.542482                      
system.cpu.icache.overall_avg_mshr_uncacheable_latency::total 85032.542482                      
system.cpu.l2cache.tags.pwrStateResidencyTicks::UNDEFINED 2854927627500                      
system.cpu.l2cache.tags.replacements            96735                      
system.cpu.l2cache.tags.tagsinuse        65145.168684                      
system.cpu.l2cache.tags.total_refs            7316055                      
system.cpu.l2cache.tags.sampled_refs           162131                      
system.cpu.l2cache.tags.avg_refs            45.124344                      
system.cpu.l2cache.tags.warmup_cycle     100163301000                      
system.cpu.l2cache.tags.occ_blocks::cpu.dtb.walker    70.099174                      
system.cpu.l2cache.tags.occ_blocks::cpu.itb.walker     0.032946                      
system.cpu.l2cache.tags.occ_blocks::cpu.inst 12110.066628                      
system.cpu.l2cache.tags.occ_blocks::cpu.data 52964.969936                      
system.cpu.l2cache.tags.occ_percent::cpu.dtb.walker     0.001070                      
system.cpu.l2cache.tags.occ_percent::cpu.itb.walker     0.000001                      
system.cpu.l2cache.tags.occ_percent::cpu.inst     0.184785                      
system.cpu.l2cache.tags.occ_percent::cpu.data     0.808181                      
system.cpu.l2cache.tags.occ_percent::total     0.994036                      
system.cpu.l2cache.tags.occ_task_id_blocks::1023           46                      
system.cpu.l2cache.tags.occ_task_id_blocks::1024        65350                      
system.cpu.l2cache.tags.age_task_id_blocks_1023::4           46                      
system.cpu.l2cache.tags.age_task_id_blocks_1024::0            1                      
system.cpu.l2cache.tags.age_task_id_blocks_1024::2           89                      
system.cpu.l2cache.tags.age_task_id_blocks_1024::3         4574                      
system.cpu.l2cache.tags.age_task_id_blocks_1024::4        60686                      
system.cpu.l2cache.tags.occ_task_id_percent::1023     0.000702                      
system.cpu.l2cache.tags.occ_task_id_percent::1024     0.997162                      
system.cpu.l2cache.tags.tag_accesses         60043597                      
system.cpu.l2cache.tags.data_accesses        60043597                      
system.cpu.l2cache.pwrStateResidencyTicks::UNDEFINED 2854927627500                      
system.cpu.l2cache.ReadReq_hits::cpu.dtb.walker        67906                      
system.cpu.l2cache.ReadReq_hits::cpu.itb.walker         3398                      
system.cpu.l2cache.ReadReq_hits::total          71304                      
system.cpu.l2cache.WritebackDirty_hits::writebacks       701832                      
system.cpu.l2cache.WritebackDirty_hits::total       701832                      
system.cpu.l2cache.WritebackClean_hits::writebacks      2838620                      
system.cpu.l2cache.WritebackClean_hits::total      2838620                      
system.cpu.l2cache.UpgradeReq_hits::cpu.data         2784                      
system.cpu.l2cache.UpgradeReq_hits::total         2784                      
system.cpu.l2cache.ReadExReq_hits::cpu.data       167004                      
system.cpu.l2cache.ReadExReq_hits::total       167004                      
system.cpu.l2cache.ReadCleanReq_hits::cpu.inst      2866770                      
system.cpu.l2cache.ReadCleanReq_hits::total      2866770                      
system.cpu.l2cache.ReadSharedReq_hits::cpu.data       534209                      
system.cpu.l2cache.ReadSharedReq_hits::total       534209                      
system.cpu.l2cache.demand_hits::cpu.dtb.walker        67906                      
system.cpu.l2cache.demand_hits::cpu.itb.walker         3398                      
system.cpu.l2cache.demand_hits::cpu.inst      2866770                      
system.cpu.l2cache.demand_hits::cpu.data       701213                      
system.cpu.l2cache.demand_hits::total         3639287                      
system.cpu.l2cache.overall_hits::cpu.dtb.walker        67906                      
system.cpu.l2cache.overall_hits::cpu.itb.walker         3398                      
system.cpu.l2cache.overall_hits::cpu.inst      2866770                      
system.cpu.l2cache.overall_hits::cpu.data       701213                      
system.cpu.l2cache.overall_hits::total        3639287                      
system.cpu.l2cache.ReadReq_misses::cpu.dtb.walker          109                      
system.cpu.l2cache.ReadReq_misses::cpu.itb.walker            2                      
system.cpu.l2cache.ReadReq_misses::total          111                      
system.cpu.l2cache.UpgradeReq_misses::cpu.data            6                      
system.cpu.l2cache.UpgradeReq_misses::total            6                      
system.cpu.l2cache.SCUpgradeReq_misses::cpu.data            2                      
system.cpu.l2cache.SCUpgradeReq_misses::total            2                      
system.cpu.l2cache.ReadExReq_misses::cpu.data       129322                      
system.cpu.l2cache.ReadExReq_misses::total       129322                      
system.cpu.l2cache.ReadCleanReq_misses::cpu.inst        22936                      
system.cpu.l2cache.ReadCleanReq_misses::total        22936                      
system.cpu.l2cache.ReadSharedReq_misses::cpu.data        14450                      
system.cpu.l2cache.ReadSharedReq_misses::total        14450                      
system.cpu.l2cache.demand_misses::cpu.dtb.walker          109                      
system.cpu.l2cache.demand_misses::cpu.itb.walker            2                      
system.cpu.l2cache.demand_misses::cpu.inst        22936                      
system.cpu.l2cache.demand_misses::cpu.data       143772                      
system.cpu.l2cache.demand_misses::total        166819                      
system.cpu.l2cache.overall_misses::cpu.dtb.walker          109                      
system.cpu.l2cache.overall_misses::cpu.itb.walker            2                      
system.cpu.l2cache.overall_misses::cpu.inst        22936                      
system.cpu.l2cache.overall_misses::cpu.data       143772                      
system.cpu.l2cache.overall_misses::total       166819                      
system.cpu.l2cache.ReadReq_miss_latency::cpu.dtb.walker     35817000                      
system.cpu.l2cache.ReadReq_miss_latency::cpu.itb.walker       193000                      
system.cpu.l2cache.ReadReq_miss_latency::total     36010000                      
system.cpu.l2cache.UpgradeReq_miss_latency::cpu.data       174000                      
system.cpu.l2cache.UpgradeReq_miss_latency::total       174000                      
system.cpu.l2cache.SCUpgradeReq_miss_latency::cpu.data       166000                      
system.cpu.l2cache.SCUpgradeReq_miss_latency::total       166000                      
system.cpu.l2cache.ReadExReq_miss_latency::cpu.data  12012379500                      
system.cpu.l2cache.ReadExReq_miss_latency::total  12012379500                      
system.cpu.l2cache.ReadCleanReq_miss_latency::cpu.inst   2400764000                      
system.cpu.l2cache.ReadCleanReq_miss_latency::total   2400764000                      
system.cpu.l2cache.ReadSharedReq_miss_latency::cpu.data   1756081500                      
system.cpu.l2cache.ReadSharedReq_miss_latency::total   1756081500                      
system.cpu.l2cache.demand_miss_latency::cpu.dtb.walker     35817000                      
system.cpu.l2cache.demand_miss_latency::cpu.itb.walker       193000                      
system.cpu.l2cache.demand_miss_latency::cpu.inst   2400764000                      
system.cpu.l2cache.demand_miss_latency::cpu.data  13768461000                      
system.cpu.l2cache.demand_miss_latency::total  16205235000                      
system.cpu.l2cache.overall_miss_latency::cpu.dtb.walker     35817000                      
system.cpu.l2cache.overall_miss_latency::cpu.itb.walker       193000                      
system.cpu.l2cache.overall_miss_latency::cpu.inst   2400764000                      
system.cpu.l2cache.overall_miss_latency::cpu.data  13768461000                      
system.cpu.l2cache.overall_miss_latency::total  16205235000                      
system.cpu.l2cache.ReadReq_accesses::cpu.dtb.walker        68015                      
system.cpu.l2cache.ReadReq_accesses::cpu.itb.walker         3400                      
system.cpu.l2cache.ReadReq_accesses::total        71415                      
system.cpu.l2cache.WritebackDirty_accesses::writebacks       701832                      
system.cpu.l2cache.WritebackDirty_accesses::total       701832                      
system.cpu.l2cache.WritebackClean_accesses::writebacks      2838620                      
system.cpu.l2cache.WritebackClean_accesses::total      2838620                      
system.cpu.l2cache.UpgradeReq_accesses::cpu.data         2790                      
system.cpu.l2cache.UpgradeReq_accesses::total         2790                      
system.cpu.l2cache.SCUpgradeReq_accesses::cpu.data            2                      
system.cpu.l2cache.SCUpgradeReq_accesses::total            2                      
system.cpu.l2cache.ReadExReq_accesses::cpu.data       296326                      
system.cpu.l2cache.ReadExReq_accesses::total       296326                      
[...]
system.iobus.reqLayer19.utilization               0.0                      
system.iobus.reqLayer20.occupancy               10000                      
system.iobus.reqLayer20.utilization               0.0                      
system.iobus.reqLayer21.occupancy                9000                      
system.iobus.reqLayer21.utilization               0.0                      
system.iobus.reqLayer23.occupancy             6091500                      
system.iobus.reqLayer23.utilization               0.0                      
system.iobus.reqLayer24.occupancy            39097500                      
system.iobus.reqLayer24.utilization               0.0                      
system.iobus.reqLayer25.occupancy           187695840                      
system.iobus.reqLayer25.utilization               0.0                      
system.iobus.respLayer0.occupancy            82668000                      
system.iobus.respLayer0.utilization               0.0                      
system.iobus.respLayer3.occupancy            36740000                      
system.iobus.respLayer3.utilization               0.0                      
system.iocache.tags.pwrStateResidencyTicks::UNDEFINED 2854927627500                      
system.iocache.tags.replacements                36424                      
system.iocache.tags.tagsinuse                1.033903                      
system.iocache.tags.total_refs                      0                      
system.iocache.tags.sampled_refs                36440                      
system.iocache.tags.avg_refs                        0                      
system.iocache.tags.warmup_cycle         272037045000                      
system.iocache.tags.occ_blocks::realview.ide     1.033903                      
system.iocache.tags.occ_percent::realview.ide     0.064619                      
system.iocache.tags.occ_percent::total       0.064619                      
system.iocache.tags.occ_task_id_blocks::1023           16                      
system.iocache.tags.age_task_id_blocks_1023::3           16                      
system.iocache.tags.occ_task_id_percent::1023            1                      
system.iocache.tags.tag_accesses               328122                      
system.iocache.tags.data_accesses              328122                      
system.iocache.pwrStateResidencyTicks::UNDEFINED 2854927627500                      
system.iocache.ReadReq_misses::realview.ide          234                      
system.iocache.ReadReq_misses::total              234                      
system.iocache.WriteLineReq_misses::realview.ide        36224                      
system.iocache.WriteLineReq_misses::total        36224                      
system.iocache.demand_misses::realview.ide        36458                      
system.iocache.demand_misses::total             36458                      
system.iocache.overall_misses::realview.ide        36458                      
system.iocache.overall_misses::total            36458                      
system.iocache.ReadReq_miss_latency::realview.ide     37408377                      
system.iocache.ReadReq_miss_latency::total     37408377                      
system.iocache.WriteLineReq_miss_latency::realview.ide   4382403463                      
system.iocache.WriteLineReq_miss_latency::total   4382403463                      
system.iocache.demand_miss_latency::realview.ide   4419811840                      
system.iocache.demand_miss_latency::total   4419811840                      
system.iocache.overall_miss_latency::realview.ide   4419811840                      
system.iocache.overall_miss_latency::total   4419811840                      
system.iocache.ReadReq_accesses::realview.ide          234                      
system.iocache.ReadReq_accesses::total            234                      
system.iocache.WriteLineReq_accesses::realview.ide        36224                      
system.iocache.WriteLineReq_accesses::total        36224                      
system.iocache.demand_accesses::realview.ide        36458                      
system.iocache.demand_accesses::total           36458                      
system.iocache.overall_accesses::realview.ide        36458                      
system.iocache.overall_accesses::total          36458                      
system.iocache.ReadReq_miss_rate::realview.ide            1                      
system.iocache.ReadReq_miss_rate::total             1                      
system.iocache.WriteLineReq_miss_rate::realview.ide            1                      
system.iocache.WriteLineReq_miss_rate::total            1                      
system.iocache.demand_miss_rate::realview.ide            1                      
system.iocache.demand_miss_rate::total              1                      
system.iocache.overall_miss_rate::realview.ide            1                      
system.iocache.overall_miss_rate::total             1                      
system.iocache.ReadReq_avg_miss_latency::realview.ide 159864.858974                      
system.iocache.ReadReq_avg_miss_latency::total 159864.858974                      
system.iocache.WriteLineReq_avg_miss_latency::realview.ide 120980.660971                      
system.iocache.WriteLineReq_avg_miss_latency::total 120980.660971                      
system.iocache.demand_avg_miss_latency::realview.ide 121230.233145                      
system.iocache.demand_avg_miss_latency::total 121230.233145                      
system.iocache.overall_avg_miss_latency::realview.ide 121230.233145                      
system.iocache.overall_avg_miss_latency::total 121230.233145                      
system.iocache.blocked_cycles::no_mshrs            31                      
system.iocache.blocked_cycles::no_targets            0                      
system.iocache.blocked::no_mshrs                    2                      
system.iocache.blocked::no_targets                  0                      
system.iocache.avg_blocked_cycles::no_mshrs    15.500000                      
system.iocache.avg_blocked_cycles::no_targets          nan                      
system.iocache.writebacks::writebacks           36190                      
system.iocache.writebacks::total                36190                      
system.iocache.ReadReq_mshr_misses::realview.ide          234                      
system.iocache.ReadReq_mshr_misses::total          234                      
system.iocache.WriteLineReq_mshr_misses::realview.ide        36224                      
system.iocache.WriteLineReq_mshr_misses::total        36224                      
system.iocache.demand_mshr_misses::realview.ide        36458                      
system.iocache.demand_mshr_misses::total        36458                      
system.iocache.overall_mshr_misses::realview.ide        36458                      
system.iocache.overall_mshr_misses::total        36458                      
system.iocache.ReadReq_mshr_miss_latency::realview.ide     25708377                      
system.iocache.ReadReq_mshr_miss_latency::total     25708377                      
system.iocache.WriteLineReq_mshr_miss_latency::realview.ide   2569352147                      
system.iocache.WriteLineReq_mshr_miss_latency::total   2569352147                      
system.iocache.demand_mshr_miss_latency::realview.ide   2595060524                      
system.iocache.demand_mshr_miss_latency::total   2595060524                      
system.iocache.overall_mshr_miss_latency::realview.ide   2595060524                      
system.iocache.overall_mshr_miss_latency::total   2595060524                      
system.iocache.ReadReq_mshr_miss_rate::realview.ide            1                      
system.iocache.ReadReq_mshr_miss_rate::total            1                      
system.iocache.WriteLineReq_mshr_miss_rate::realview.ide            1                      
system.iocache.WriteLineReq_mshr_miss_rate::total            1                      
system.iocache.demand_mshr_miss_rate::realview.ide            1                      
system.iocache.demand_mshr_miss_rate::total            1                      
system.iocache.overall_mshr_miss_rate::realview.ide            1                      
system.iocache.overall_mshr_miss_rate::total            1                      
system.iocache.ReadReq_avg_mshr_miss_latency::realview.ide 109864.858974                      
system.iocache.ReadReq_avg_mshr_miss_latency::total 109864.858974                      
system.iocache.WriteLineReq_avg_mshr_miss_latency::realview.ide 70929.553528                      
system.iocache.WriteLineReq_avg_mshr_miss_latency::total 70929.553528                      
system.iocache.demand_avg_mshr_miss_latency::realview.ide 71179.453728                      
system.iocache.demand_avg_mshr_miss_latency::total 71179.453728                      
system.iocache.overall_avg_mshr_miss_latency::realview.ide 71179.453728                      
system.iocache.overall_avg_mshr_miss_latency::total 71179.453728                      
system.membus.snoop_filter.tot_requests        336351                      
system.membus.snoop_filter.hit_single_requests       137754                      
system.membus.snoop_filter.hit_multi_requests          539                      
system.membus.snoop_filter.tot_snoops               0                      
system.membus.snoop_filter.hit_single_snoops            0                      
system.membus.snoop_filter.hit_multi_snoops            0                      
system.membus.pwrStateResidencyTicks::UNDEFINED 2854927627500                      
system.membus.trans_dist::ReadReq               34229                      
system.membus.trans_dist::ReadResp              71804                      
system.membus.trans_dist::WriteReq              27574                      
system.membus.trans_dist::WriteResp             27574                      
system.membus.trans_dist::WritebackDirty       124328                      
system.membus.trans_dist::CleanEvict             8831                      
system.membus.trans_dist::UpgradeReq              128                      
system.membus.trans_dist::SCUpgradeReq              2                      
system.membus.trans_dist::UpgradeResp               2                      
system.membus.trans_dist::ReadExReq            129200                      
system.membus.trans_dist::ReadExResp           129200                      
system.membus.trans_dist::ReadSharedReq         37575                      
system.membus.trans_dist::InvalidateReq         36224                      
system.membus.trans_dist::InvalidateResp         4361                      
system.membus.pkt_count_system.cpu.l2cache.mem_side::system.bridge.slave       105458                      
system.membus.pkt_count_system.cpu.l2cache.mem_side::system.realview.nvmem.port           16                      
system.membus.pkt_count_system.cpu.l2cache.mem_side::system.realview.gic.pio         2034                      
system.membus.pkt_count_system.cpu.l2cache.mem_side::system.physmem.port       445761                      
system.membus.pkt_count_system.cpu.l2cache.mem_side::total       553269                      
system.membus.pkt_count_system.iocache.mem_side::system.physmem.port        72897                      
system.membus.pkt_count_system.iocache.mem_side::total        72897                      
system.membus.pkt_count::total                 626166                      
system.membus.pkt_size_system.cpu.l2cache.mem_side::system.bridge.slave       159115                      
system.membus.pkt_size_system.cpu.l2cache.mem_side::system.realview.nvmem.port          512                      
system.membus.pkt_size_system.cpu.l2cache.mem_side::system.realview.gic.pio         4068                      
system.membus.pkt_size_system.cpu.l2cache.mem_side::system.physmem.port     16500192                      
system.membus.pkt_size_system.cpu.l2cache.mem_side::total     16663887                      
system.membus.pkt_size_system.iocache.mem_side::system.physmem.port      2317120                      
system.membus.pkt_size_system.iocache.mem_side::total      2317120                      
system.membus.pkt_size::total                18981007                      
system.membus.snoops                             4866                      
system.membus.snoopTraffic                      32192                      
system.membus.snoop_fanout::samples            264932                      
system.membus.snoop_fanout::mean             0.018567                      
system.membus.snoop_fanout::stdev            0.134990                      
system.membus.snoop_fanout::underflows              0      0.00%      0.00%
system.membus.snoop_fanout::0                  260013     98.14%     98.14%
system.membus.snoop_fanout::1                    4919      1.86%    100.00%
system.membus.snoop_fanout::2                       0      0.00%    100.00%
system.membus.snoop_fanout::overflows               0      0.00%    100.00%
system.membus.snoop_fanout::min_value               0                      
system.membus.snoop_fanout::max_value               1                      
system.membus.snoop_fanout::total              264932                      
system.membus.reqLayer0.occupancy            92832000                      
system.membus.reqLayer0.utilization               0.0                      
system.membus.reqLayer1.occupancy                8000                      
system.membus.reqLayer1.utilization               0.0                      
system.membus.reqLayer2.occupancy             1658500                      
system.membus.reqLayer2.utilization               0.0                      
system.membus.reqLayer5.occupancy           903719482                      
system.membus.reqLayer5.utilization               0.0                      
system.membus.respLayer2.occupancy          987883000                      
system.membus.respLayer2.utilization              0.0                      
system.membus.respLayer3.occupancy            5809413                      
system.membus.respLayer3.utilization              0.0                      
system.membus.badaddr_responder.pwrStateResidencyTicks::UNDEFINED 2854927627500                      
system.realview.aaci_fake.pwrStateResidencyTicks::UNDEFINED 2854927627500                      
system.realview.pci_host.pwrStateResidencyTicks::UNDEFINED 2854927627500                      
system.realview.cf_ctrl.pwrStateResidencyTicks::UNDEFINED 2854927627500                      
system.realview.gic.pwrStateResidencyTicks::UNDEFINED 2854927627500                      
system.realview.clcd.pwrStateResidencyTicks::UNDEFINED 2854927627500                      
system.realview.realview_io.pwrStateResidencyTicks::UNDEFINED 2854927627500                      
system.realview.dcc.osc_cpu.clock               16667                      
system.realview.dcc.osc_ddr.clock               25000                      
system.realview.dcc.osc_hsbm.clock              25000                      
system.realview.dcc.osc_pxl.clock               42105                      
system.realview.dcc.osc_smb.clock               20000                      
system.realview.dcc.osc_sys.clock               16667                      
system.realview.energy_ctrl.pwrStateResidencyTicks::UNDEFINED 2854927627500                      
system.realview.ethernet.pwrStateResidencyTicks::UNDEFINED 2854927627500                      
system.realview.ethernet.descDMAReads               0                      
system.realview.ethernet.descDMAWrites              0                      
system.realview.ethernet.descDmaReadBytes            0                      
system.realview.ethernet.descDmaWriteBytes            0                      
system.realview.ethernet.postedSwi                  0                      
system.realview.ethernet.coalescedSwi             nan                      
system.realview.ethernet.totalSwi                   0                      
system.realview.ethernet.postedRxIdle               0                      
system.realview.ethernet.coalescedRxIdle          nan                      
system.realview.ethernet.totalRxIdle                0                      
system.realview.ethernet.postedRxOk                 0                      
system.realview.ethernet.coalescedRxOk            nan                      
system.realview.ethernet.totalRxOk                  0                      
system.realview.ethernet.postedRxDesc               0                      
system.realview.ethernet.coalescedRxDesc          nan                      
system.realview.ethernet.totalRxDesc                0                      
system.realview.ethernet.postedTxOk                 0                      
system.realview.ethernet.coalescedTxOk            nan                      
system.realview.ethernet.totalTxOk                  0                      
system.realview.ethernet.postedTxIdle               0                      
system.realview.ethernet.coalescedTxIdle          nan                      
system.realview.ethernet.totalTxIdle                0                      
system.realview.ethernet.postedTxDesc               0                      
system.realview.ethernet.coalescedTxDesc          nan                      
system.realview.ethernet.totalTxDesc                0                      
system.realview.ethernet.postedRxOrn                0                      
system.realview.ethernet.coalescedRxOrn           nan                      
system.realview.ethernet.totalRxOrn                 0                      
system.realview.ethernet.coalescedTotal           nan                      
system.realview.ethernet.postedInterrupts            0                      
system.realview.ethernet.droppedPackets             0                      
system.realview.hdlcd.pwrStateResidencyTicks::UNDEFINED 2854927627500                      
system.realview.ide.pwrStateResidencyTicks::UNDEFINED 2854927627500                      
system.realview.kmi0.pwrStateResidencyTicks::UNDEFINED 2854927627500                      
system.realview.kmi1.pwrStateResidencyTicks::UNDEFINED 2854927627500                      
system.realview.l2x0_fake.pwrStateResidencyTicks::UNDEFINED 2854927627500                      
system.realview.lan_fake.pwrStateResidencyTicks::UNDEFINED 2854927627500                      
system.realview.local_cpu_timer.pwrStateResidencyTicks::UNDEFINED 2854927627500                      
system.realview.mcc.osc_clcd.clock              42105                      
system.realview.mcc.osc_mcc.clock               20000                      
system.realview.mcc.osc_peripheral.clock        41667                      
system.realview.mcc.osc_system_bus.clock        41667                      
system.realview.mmc_fake.pwrStateResidencyTicks::UNDEFINED 2854927627500                      
system.realview.rtc.pwrStateResidencyTicks::UNDEFINED 2854927627500                      
system.realview.sp810_fake.pwrStateResidencyTicks::UNDEFINED 2854927627500                      
system.realview.timer0.pwrStateResidencyTicks::UNDEFINED 2854927627500                      
system.realview.timer1.pwrStateResidencyTicks::UNDEFINED 2854927627500                      
system.realview.uart.pwrStateResidencyTicks::UNDEFINED 2854927627500                      
system.realview.uart1_fake.pwrStateResidencyTicks::UNDEFINED 2854927627500                      
system.realview.uart2_fake.pwrStateResidencyTicks::UNDEFINED 2854927627500                      
system.realview.uart3_fake.pwrStateResidencyTicks::UNDEFINED 2854927627500                      
system.realview.usb_fake.pwrStateResidencyTicks::UNDEFINED 2854927627500                      
system.realview.vgic.pwrStateResidencyTicks::UNDEFINED 2854927627500                      
system.realview.watchdog_fake.pwrStateResidencyTicks::UNDEFINED 2854927627500                      

---------- End Simulation Statistics   ----------
