
---------- Begin Simulation Statistics ----------
sim_seconds                                  2.858555                       # Number of seconds simulated
sim_ticks                                2858554679500                       # Number of ticks simulated
final_tick                               2858554679500                       # Number of ticks from beginning of simulation (restored from checkpoints and never reset)
sim_freq                                 1000000000000                       # Frequency of simulated ticks
host_inst_rate                                 162796                       # Simulator instruction rate (inst/s)
host_op_rate                                   196833                       # Simulator op (including micro ops) rate (op/s)
host_tick_rate                             4157408079                       # Simulator tick rate (ticks/s)
host_mem_usage                                 628580                       # Number of bytes of host memory used
host_seconds                                   687.58                       # Real time elapsed on the host
sim_insts                                   111935485                       # Number of instructions simulated
sim_ops                                     135338943                       # Number of ops (including micro ops) simulated
system.voltage_domain.voltage                       1                       # Voltage in Volts
system.clk_domain.clock                          1000                       # Clock period in ticks
system.physmem.bytes_read::cpu.dtb.walker         7616                       # Number of bytes read from this memory
system.physmem.bytes_read::cpu.itb.walker           64                       # Number of bytes read from this memory
system.physmem.bytes_read::cpu.inst           1708096                       # Number of bytes read from this memory
system.physmem.bytes_read::cpu.data           9149804                       # Number of bytes read from this memory
system.physmem.bytes_read::realview.ide           960                       # Number of bytes read from this memory
system.physmem.bytes_read::total             10866540                       # Number of bytes read from this memory
system.physmem.bytes_inst_read::cpu.inst      1708096                       # Number of instructions bytes read from this memory
system.physmem.bytes_inst_read::total         1708096                       # Number of instructions bytes read from this memory
system.physmem.bytes_written::writebacks      7937280                       # Number of bytes written to this memory
system.physmem.bytes_written::cpu.data          17524                       # Number of bytes written to this memory
system.physmem.bytes_written::total           7954804                       # Number of bytes written to this memory
system.physmem.num_reads::cpu.dtb.walker          119                       # Number of read requests responded to by this memory
system.physmem.num_reads::cpu.itb.walker            1                       # Number of read requests responded to by this memory
system.physmem.num_reads::cpu.inst              26689                       # Number of read requests responded to by this memory
system.physmem.num_reads::cpu.data             143487                       # Number of read requests responded to by this memory
system.physmem.num_reads::realview.ide             15                       # Number of read requests responded to by this memory
system.physmem.num_reads::total                170311                       # Number of read requests responded to by this memory
system.physmem.num_writes::writebacks          124020                       # Number of write requests responded to by this memory
system.physmem.num_writes::cpu.data              4381                       # Number of write requests responded to by this memory
system.physmem.num_writes::total               128401                       # Number of write requests responded to by this memory
system.physmem.bw_read::cpu.dtb.walker           2664                       # Total read bandwidth from this memory (bytes/s)
system.physmem.bw_read::cpu.itb.walker             22                       # Total read bandwidth from this memory (bytes/s)
system.physmem.bw_read::cpu.inst               597538                       # Total read bandwidth from this memory (bytes/s)
system.physmem.bw_read::cpu.data              3200850                       # Total read bandwidth from this memory (bytes/s)
system.physmem.bw_read::realview.ide              336                       # Total read bandwidth from this memory (bytes/s)
system.physmem.bw_read::total                 3801411                       # Total read bandwidth from this memory (bytes/s)
system.physmem.bw_inst_read::cpu.inst          597538                       # Instruction read bandwidth from this memory (bytes/s)
system.physmem.bw_inst_read::total             597538                       # Instruction read bandwidth from this memory (bytes/s)
system.physmem.bw_write::writebacks           2776676                       # Write bandwidth from this memory (bytes/s)
system.physmem.bw_write::cpu.data                6130                       # Write bandwidth from this memory (bytes/s)
system.physmem.bw_write::total                2782806                       # Write bandwidth from this memory (bytes/s)
system.physmem.bw_total::writebacks           2776676                       # Total bandwidth to/from this memory (bytes/s)
system.physmem.bw_total::cpu.dtb.walker          2664                       # Total bandwidth to/from this memory (bytes/s)
system.physmem.bw_total::cpu.itb.walker            22                       # Total bandwidth to/from this memory (bytes/s)
system.physmem.bw_total::cpu.inst              597538                       # Total bandwidth to/from this memory (bytes/s)
system.physmem.bw_total::cpu.data             3206980                       # Total bandwidth to/from this memory (bytes/s)
system.physmem.bw_total::realview.ide             336                       # Total bandwidth to/from this memory (bytes/s)
system.physmem.bw_total::total                6584217                       # Total bandwidth to/from this memory (bytes/s)
system.physmem.readReqs                        170311                       # Number of read requests accepted
system.physmem.writeReqs                       128401                       # Number of write requests accepted
system.physmem.readBursts                      170311                       # Number of DRAM read bursts, including those serviced by the write queue
system.physmem.writeBursts                     128401                       # Number of DRAM write bursts, including those merged in the write queue
system.physmem.bytesReadDRAM                 10891264                       # Total number of bytes read from DRAM
system.physmem.bytesReadWrQ                      8640                       # Total number of bytes read from write queue
system.physmem.bytesWritten                   7967296                       # Total number of bytes written to DRAM
system.physmem.bytesReadSys                  10866540                       # Total read bytes from the system interface side
system.physmem.bytesWrittenSys                7954804                       # Total written bytes from the system interface side
system.physmem.servicedByWrQ                      135                       # Number of DRAM read bursts serviced by the write queue
system.physmem.mergedWrBursts                    3887                       # Number of DRAM write bursts merged with an existing one
system.physmem.neitherReadNorWriteReqs          49408                       # Number of requests that are neither read nor write
system.physmem.perBankRdBursts::0               10771                       # Per bank write bursts
system.physmem.perBankRdBursts::1               10784                       # Per bank write bursts
system.physmem.perBankRdBursts::2               10887                       # Per bank write bursts
system.physmem.perBankRdBursts::3               10717                       # Per bank write bursts
system.physmem.perBankRdBursts::4               14062                       # Per bank write bursts
system.physmem.perBankRdBursts::5               10208                       # Per bank write bursts
system.physmem.perBankRdBursts::6               10996                       # Per bank write bursts
system.physmem.perBankRdBursts::7               10949                       # Per bank write bursts
system.physmem.perBankRdBursts::8                9936                       # Per bank write bursts
system.physmem.perBankRdBursts::9               10239                       # Per bank write bursts
system.physmem.perBankRdBursts::10               9937                       # Per bank write bursts
system.physmem.perBankRdBursts::11               9167                       # Per bank write bursts
system.physmem.perBankRdBursts::12              10278                       # Per bank write bursts
system.physmem.perBankRdBursts::13              11186                       # Per bank write bursts
system.physmem.perBankRdBursts::14              10249                       # Per bank write bursts
system.physmem.perBankRdBursts::15               9810                       # Per bank write bursts
system.physmem.perBankWrBursts::0                8068                       # Per bank write bursts
system.physmem.perBankWrBursts::1                8140                       # Per bank write bursts
system.physmem.perBankWrBursts::2                8529                       # Per bank write bursts
system.physmem.perBankWrBursts::3                8260                       # Per bank write bursts
system.physmem.perBankWrBursts::4                7653                       # Per bank write bursts
system.physmem.perBankWrBursts::5                7417                       # Per bank write bursts
system.physmem.perBankWrBursts::6                7934                       # Per bank write bursts
system.physmem.perBankWrBursts::7                8022                       # Per bank write bursts
system.physmem.perBankWrBursts::8                7566                       # Per bank write bursts
system.physmem.perBankWrBursts::9                7724                       # Per bank write bursts
system.physmem.perBankWrBursts::10               7504                       # Per bank write bursts
system.physmem.perBankWrBursts::11               7051                       # Per bank write bursts
system.physmem.perBankWrBursts::12               7682                       # Per bank write bursts
system.physmem.perBankWrBursts::13               8291                       # Per bank write bursts
system.physmem.perBankWrBursts::14               7536                       # Per bank write bursts
system.physmem.perBankWrBursts::15               7112                       # Per bank write bursts
system.physmem.numRdRetry                           0                       # Number of times read queue was full causing retry
system.physmem.numWrRetry                           1                       # Number of times write queue was full causing retry
system.physmem.totGap                    2858554234000                       # Total gap between requests
system.physmem.readPktSize::0                       0                       # Read request sizes (log2)
system.physmem.readPktSize::1                       0                       # Read request sizes (log2)
system.physmem.readPktSize::2                     543                       # Read request sizes (log2)
system.physmem.readPktSize::3                      14                       # Read request sizes (log2)
system.physmem.readPktSize::4                       0                       # Read request sizes (log2)
system.physmem.readPktSize::5                       0                       # Read request sizes (log2)
system.physmem.readPktSize::6                  169754                       # Read request sizes (log2)
system.physmem.writePktSize::0                      0                       # Write request sizes (log2)
system.physmem.writePktSize::1                      0                       # Write request sizes (log2)
system.physmem.writePktSize::2                   4381                       # Write request sizes (log2)
system.physmem.writePktSize::3                      0                       # Write request sizes (log2)
system.physmem.writePktSize::4                      0                       # Write request sizes (log2)
system.physmem.writePktSize::5                      0                       # Write request sizes (log2)
system.physmem.writePktSize::6                 124020                       # Write request sizes (log2)
system.physmem.rdQLenPdf::0                    163165                       # What read queue length does an incoming req see
system.physmem.rdQLenPdf::1                      6708                       # What read queue length does an incoming req see
system.physmem.rdQLenPdf::2                       291                       # What read queue length does an incoming req see
system.physmem.rdQLenPdf::3                         1                       # What read queue length does an incoming req see
system.physmem.rdQLenPdf::4                         1                       # What read queue length does an incoming req see
system.physmem.rdQLenPdf::5                         1                       # What read queue length does an incoming req see
system.physmem.rdQLenPdf::6                         1                       # What read queue length does an incoming req see
system.physmem.rdQLenPdf::7                         1                       # What read queue length does an incoming req see
system.physmem.rdQLenPdf::8                         1                       # What read queue length does an incoming req see
system.physmem.rdQLenPdf::9                         1                       # What read queue length does an incoming req see
system.physmem.rdQLenPdf::10                        1                       # What read queue length does an incoming req see
system.physmem.rdQLenPdf::11                        1                       # What read queue length does an incoming req see
system.physmem.rdQLenPdf::12                        1                       # What read queue length does an incoming req see
system.physmem.rdQLenPdf::13                        1                       # What read queue length does an incoming req see
system.physmem.rdQLenPdf::14                        1                       # What read queue length does an incoming req see
system.physmem.rdQLenPdf::15                        0                       # What read queue length does an incoming req see
system.physmem.rdQLenPdf::16                        0                       # What read queue length does an incoming req see
system.physmem.rdQLenPdf::17                        0                       # What read queue length does an incoming req see
system.physmem.rdQLenPdf::18                        0                       # What read queue length does an incoming req see
system.physmem.rdQLenPdf::19                        0                       # What read queue length does an incoming req see
system.physmem.rdQLenPdf::20                        0                       # What read queue length does an incoming req see
system.physmem.rdQLenPdf::21                        0                       # What read queue length does an incoming req see
system.physmem.rdQLenPdf::22                        0                       # What read queue length does an incoming req see
system.physmem.rdQLenPdf::23                        0                       # What read queue length does an incoming req see
system.physmem.rdQLenPdf::24                        0                       # What read queue length does an incoming req see
system.physmem.rdQLenPdf::25                        0                       # What read queue length does an incoming req see
system.physmem.rdQLenPdf::26                        0                       # What read queue length does an incoming req see
system.physmem.rdQLenPdf::27                        0                       # What read queue length does an incoming req see
system.physmem.rdQLenPdf::28                        0                       # What read queue length does an incoming req see
system.physmem.rdQLenPdf::29                        0                       # What read queue length does an incoming req see
system.physmem.rdQLenPdf::30                        0                       # What read queue length does an incoming req see
system.physmem.rdQLenPdf::31                        0                       # What read queue length does an incoming req see
system.physmem.wrQLenPdf::0                         1                       # What write queue length does an incoming req see
system.physmem.wrQLenPdf::1                         1                       # What write queue length does an incoming req see
system.physmem.wrQLenPdf::2                         1                       # What write queue length does an incoming req see
system.physmem.wrQLenPdf::3                         1                       # What write queue length does an incoming req see
system.physmem.wrQLenPdf::4                         1                       # What write queue length does an incoming req see
system.physmem.wrQLenPdf::5                         1                       # What write queue length does an incoming req see
system.physmem.wrQLenPdf::6                         1                       # What write queue length does an incoming req see
system.physmem.wrQLenPdf::7                         1                       # What write queue length does an incoming req see
system.physmem.wrQLenPdf::8                         1                       # What write queue length does an incoming req see
system.physmem.wrQLenPdf::9                         1                       # What write queue length does an incoming req see
system.physmem.wrQLenPdf::10                        1                       # What write queue length does an incoming req see
system.physmem.wrQLenPdf::11                        1                       # What write queue length does an incoming req see
system.physmem.wrQLenPdf::12                        1                       # What write queue length does an incoming req see
system.physmem.wrQLenPdf::13                        1                       # What write queue length does an incoming req see
system.physmem.wrQLenPdf::14                        1                       # What write queue length does an incoming req see
system.physmem.wrQLenPdf::15                     2047                       # What write queue length does an incoming req see
system.physmem.wrQLenPdf::16                     2399                       # What write queue length does an incoming req see
system.physmem.wrQLenPdf::17                     6060                       # What write queue length does an incoming req see
system.physmem.wrQLenPdf::18                     6280                       # What write queue length does an incoming req see
system.physmem.wrQLenPdf::19                     6728                       # What write queue length does an incoming req see
system.physmem.wrQLenPdf::20                     6786                       # What write queue length does an incoming req see
system.physmem.wrQLenPdf::21                     7644                       # What write queue length does an incoming req see
system.physmem.wrQLenPdf::22                     7385                       # What write queue length does an incoming req see
system.physmem.wrQLenPdf::23                     8118                       # What write queue length does an incoming req see
system.physmem.wrQLenPdf::24                     8306                       # What write queue length does an incoming req see
system.physmem.wrQLenPdf::25                     8126                       # What write queue length does an incoming req see
system.physmem.wrQLenPdf::26                     9757                       # What write queue length does an incoming req see
system.physmem.wrQLenPdf::27                     7720                       # What write queue length does an incoming req see
system.physmem.wrQLenPdf::28                     7133                       # What write queue length does an incoming req see
system.physmem.wrQLenPdf::29                     7200                       # What write queue length does an incoming req see
system.physmem.wrQLenPdf::30                     6847                       # What write queue length does an incoming req see
system.physmem.wrQLenPdf::31                     6581                       # What write queue length does an incoming req see
system.physmem.wrQLenPdf::32                     6447                       # What write queue length does an incoming req see
system.physmem.wrQLenPdf::33                      319                       # What write queue length does an incoming req see
system.physmem.wrQLenPdf::34                      244                       # What write queue length does an incoming req see
system.physmem.wrQLenPdf::35                      184                       # What write queue length does an incoming req see
system.physmem.wrQLenPdf::36                      180                       # What write queue length does an incoming req see
system.physmem.wrQLenPdf::37                      225                       # What write queue length does an incoming req see
system.physmem.wrQLenPdf::38                      150                       # What write queue length does an incoming req see
system.physmem.wrQLenPdf::39                      138                       # What write queue length does an incoming req see
system.physmem.wrQLenPdf::40                      128                       # What write queue length does an incoming req see
system.physmem.wrQLenPdf::41                      136                       # What write queue length does an incoming req see
system.physmem.wrQLenPdf::42                      104                       # What write queue length does an incoming req see
system.physmem.wrQLenPdf::43                      110                       # What write queue length does an incoming req see
system.physmem.wrQLenPdf::44                      127                       # What write queue length does an incoming req see
system.physmem.wrQLenPdf::45                      113                       # What write queue length does an incoming req see
system.physmem.wrQLenPdf::46                       91                       # What write queue length does an incoming req see
system.physmem.wrQLenPdf::47                      100                       # What write queue length does an incoming req see
system.physmem.wrQLenPdf::48                      112                       # What write queue length does an incoming req see
system.physmem.wrQLenPdf::49                       99                       # What write queue length does an incoming req see
system.physmem.wrQLenPdf::50                       54                       # What write queue length does an incoming req see
system.physmem.wrQLenPdf::51                       49                       # What write queue length does an incoming req see
system.physmem.wrQLenPdf::52                       44                       # What write queue length does an incoming req see
system.physmem.wrQLenPdf::53                       51                       # What write queue length does an incoming req see
system.physmem.wrQLenPdf::54                       50                       # What write queue length does an incoming req see
system.physmem.wrQLenPdf::55                       23                       # What write queue length does an incoming req see
system.physmem.wrQLenPdf::56                       26                       # What write queue length does an incoming req see
system.physmem.wrQLenPdf::57                       11                       # What write queue length does an incoming req see
system.physmem.wrQLenPdf::58                       11                       # What write queue length does an incoming req see
system.physmem.wrQLenPdf::59                       21                       # What write queue length does an incoming req see
system.physmem.wrQLenPdf::60                       14                       # What write queue length does an incoming req see
system.physmem.wrQLenPdf::61                       13                       # What write queue length does an incoming req see
system.physmem.wrQLenPdf::62                        6                       # What write queue length does an incoming req see
system.physmem.wrQLenPdf::63                        2                       # What write queue length does an incoming req see
system.physmem.bytesPerActivate::samples        61347                       # Bytes accessed per row activation
system.physmem.bytesPerActivate::mean      307.404893                       # Bytes accessed per row activation
system.physmem.bytesPerActivate::gmean     183.124702                       # Bytes accessed per row activation
system.physmem.bytesPerActivate::stdev     323.856556                       # Bytes accessed per row activation
system.physmem.bytesPerActivate::0-127          22378     36.48%     36.48% # Bytes accessed per row activation
system.physmem.bytesPerActivate::128-255        14856     24.22%     60.69% # Bytes accessed per row activation
system.physmem.bytesPerActivate::256-383         6657     10.85%     71.55% # Bytes accessed per row activation
system.physmem.bytesPerActivate::384-511         3691      6.02%     77.56% # Bytes accessed per row activation
system.physmem.bytesPerActivate::512-639         2584      4.21%     81.77% # Bytes accessed per row activation
system.physmem.bytesPerActivate::640-767         1979      3.23%     85.00% # Bytes accessed per row activation
system.physmem.bytesPerActivate::768-895         1099      1.79%     86.79% # Bytes accessed per row activation
system.physmem.bytesPerActivate::896-1023         1109      1.81%     88.60% # Bytes accessed per row activation
system.physmem.bytesPerActivate::1024-1151         6994     11.40%    100.00% # Bytes accessed per row activation
system.physmem.bytesPerActivate::total          61347                       # Bytes accessed per row activation
system.physmem.rdPerTurnAround::samples          6216                       # Reads before turning the bus around for writes
system.physmem.rdPerTurnAround::mean        27.377091                       # Reads before turning the bus around for writes
system.physmem.rdPerTurnAround::stdev      569.055211                       # Reads before turning the bus around for writes
system.physmem.rdPerTurnAround::0-2047           6215     99.98%     99.98% # Reads before turning the bus around for writes
system.physmem.rdPerTurnAround::43008-45055            1      0.02%    100.00% # Reads before turning the bus around for writes
system.physmem.rdPerTurnAround::total            6216                       # Reads before turning the bus around for writes
system.physmem.wrPerTurnAround::samples          6215                       # Writes before turning the bus around for reads
system.physmem.wrPerTurnAround::mean        20.029123                       # Writes before turning the bus around for reads
system.physmem.wrPerTurnAround::gmean       18.467033                       # Writes before turning the bus around for reads
system.physmem.wrPerTurnAround::stdev       12.100027                       # Writes before turning the bus around for reads
system.physmem.wrPerTurnAround::16-19            5396     86.82%     86.82% # Writes before turning the bus around for reads
system.physmem.wrPerTurnAround::20-23             102      1.64%     88.46% # Writes before turning the bus around for reads
system.physmem.wrPerTurnAround::24-27              39      0.63%     89.09% # Writes before turning the bus around for reads
system.physmem.wrPerTurnAround::28-31             172      2.77%     91.86% # Writes before turning the bus around for reads
system.physmem.wrPerTurnAround::32-35              31      0.50%     92.36% # Writes before turning the bus around for reads
system.physmem.wrPerTurnAround::36-39             152      2.45%     94.80% # Writes before turning the bus around for reads
system.physmem.wrPerTurnAround::40-43              39      0.63%     95.43% # Writes before turning the bus around for reads
system.physmem.wrPerTurnAround::44-47              12      0.19%     95.62% # Writes before turning the bus around for reads
system.physmem.wrPerTurnAround::48-51              17      0.27%     95.90% # Writes before turning the bus around for reads
system.physmem.wrPerTurnAround::52-55              24      0.39%     96.28% # Writes before turning the bus around for reads
system.physmem.wrPerTurnAround::56-59               4      0.06%     96.35% # Writes before turning the bus around for reads
system.physmem.wrPerTurnAround::60-63               7      0.11%     96.46% # Writes before turning the bus around for reads
system.physmem.wrPerTurnAround::64-67             159      2.56%     99.02% # Writes before turning the bus around for reads
system.physmem.wrPerTurnAround::68-71               6      0.10%     99.12% # Writes before turning the bus around for reads
system.physmem.wrPerTurnAround::72-75               7      0.11%     99.23% # Writes before turning the bus around for reads
system.physmem.wrPerTurnAround::76-79              26      0.42%     99.65% # Writes before turning the bus around for reads
system.physmem.wrPerTurnAround::80-83               2      0.03%     99.68% # Writes before turning the bus around for reads
system.physmem.wrPerTurnAround::84-87               1      0.02%     99.69% # Writes before turning the bus around for reads
system.physmem.wrPerTurnAround::92-95               1      0.02%     99.71% # Writes before turning the bus around for reads
system.physmem.wrPerTurnAround::96-99               1      0.02%     99.73% # Writes before turning the bus around for reads
system.physmem.wrPerTurnAround::100-103             2      0.03%     99.76% # Writes before turning the bus around for reads
system.physmem.wrPerTurnAround::108-111             1      0.02%     99.77% # Writes before turning the bus around for reads
system.physmem.wrPerTurnAround::124-127             1      0.02%     99.79% # Writes before turning the bus around for reads
system.physmem.wrPerTurnAround::128-131             5      0.08%     99.87% # Writes before turning the bus around for reads
system.physmem.wrPerTurnAround::140-143             1      0.02%     99.89% # Writes before turning the bus around for reads
system.physmem.wrPerTurnAround::152-155             3      0.05%     99.94% # Writes before turning the bus around for reads
system.physmem.wrPerTurnAround::156-159             3      0.05%     99.98% # Writes before turning the bus around for reads
system.physmem.wrPerTurnAround::196-199             1      0.02%    100.00% # Writes before turning the bus around for reads
system.physmem.wrPerTurnAround::total            6215                       # Writes before turning the bus around for reads
system.physmem.totQLat                     1812035750                       # Total ticks spent queuing
system.physmem.totMemAccLat                5002835750                       # Total ticks spent from burst creation until serviced by the DRAM
system.physmem.totBusLat                    850880000                       # Total ticks spent in databus transfers
system.physmem.avgQLat                       10648.01                       # Average queueing delay per DRAM burst
system.physmem.avgBusLat                      5000.00                       # Average bus latency per DRAM burst
system.physmem.avgMemAccLat                  29398.01                       # Average memory access latency per DRAM burst
system.physmem.avgRdBW                           3.81                       # Average DRAM read bandwidth in MiByte/s
system.physmem.avgWrBW                           2.79                       # Average achieved write bandwidth in MiByte/s
system.physmem.avgRdBWSys                        3.80                       # Average system read bandwidth in MiByte/s
system.physmem.avgWrBWSys                        2.78                       # Average system write bandwidth in MiByte/s
system.physmem.peakBW                        12800.00                       # Theoretical peak bandwidth in MiByte/s
system.physmem.busUtil                           0.05                       # Data bus utilization in percentage
system.physmem.busUtilRead                       0.03                       # Data bus utilization in percentage for reads
system.physmem.busUtilWrite                      0.02                       # Data bus utilization in percentage for writes
system.physmem.avgRdQLen                         1.00                       # Average read queue length when enqueuing
system.physmem.avgWrQLen                        23.83                       # Average write queue length when enqueuing
system.physmem.readRowHits                     139556                       # Number of row buffer hits during reads
system.physmem.writeRowHits                     93759                       # Number of row buffer hits during writes
system.physmem.readRowHitRate                   82.01                       # Row buffer hit rate for reads
system.physmem.writeRowHitRate                  75.30                       # Row buffer hit rate for writes
system.physmem.avgGap                      9569599.59                       # Average gap between requests
system.physmem.pageHitRate                      79.17                       # Row buffer hit rate, read and write combined
system.physmem_0.actEnergy                  241731000                       # Energy for activate commands per rank (pJ)
system.physmem_0.preEnergy                  131896875                       # Energy for precharge commands per rank (pJ)
system.physmem_0.readEnergy                 697117200                       # Energy for read commands per rank (pJ)
system.physmem_0.writeEnergy                414817200                       # Energy for write commands per rank (pJ)
system.physmem_0.refreshEnergy           186706615680                       # Energy for refresh commands per rank (pJ)
system.physmem_0.actBackEnergy            86828058675                       # Energy for active background per rank (pJ)
system.physmem_0.preBackEnergy           1638965418000                       # Energy for precharge background per rank (pJ)
system.physmem_0.totalEnergy             1913985654630                       # Total energy per rank (pJ)
system.physmem_0.averagePower              669.565069                       # Core power per rank (mW)
system.physmem_0.memoryStateTime::IDLE   2726406946000                       # Time in different power states
system.physmem_0.memoryStateTime::REF     95453280000                       # Time in different power states
system.physmem_0.memoryStateTime::PRE_PDN            0                       # Time in different power states
system.physmem_0.memoryStateTime::ACT     36694429000                       # Time in different power states
system.physmem_0.memoryStateTime::ACT_PDN            0                       # Time in different power states
system.physmem_1.actEnergy                  222037200                       # Energy for activate commands per rank (pJ)
system.physmem_1.preEnergy                  121151250                       # Energy for precharge commands per rank (pJ)
system.physmem_1.readEnergy                 630247800                       # Energy for read commands per rank (pJ)
system.physmem_1.writeEnergy                391819680                       # Energy for write commands per rank (pJ)
system.physmem_1.refreshEnergy           186706615680                       # Energy for refresh commands per rank (pJ)
system.physmem_1.actBackEnergy            85116075930                       # Energy for active background per rank (pJ)
system.physmem_1.preBackEnergy           1640467157250                       # Energy for precharge background per rank (pJ)
system.physmem_1.totalEnergy             1913655104790                       # Total energy per rank (pJ)
system.physmem_1.averagePower              669.449434                       # Core power per rank (mW)
system.physmem_1.memoryStateTime::IDLE   2728919167500                       # Time in different power states
system.physmem_1.memoryStateTime::REF     95453280000                       # Time in different power states
system.physmem_1.memoryStateTime::PRE_PDN            0                       # Time in different power states
system.physmem_1.memoryStateTime::ACT     34182085000                       # Time in different power states
system.physmem_1.memoryStateTime::ACT_PDN            0                       # Time in different power states
system.realview.nvmem.bytes_read::cpu.inst          512                       # Number of bytes read from this memory
system.realview.nvmem.bytes_read::total           512                       # Number of bytes read from this memory
system.realview.nvmem.bytes_inst_read::cpu.inst          512                       # Number of instructions bytes read from this memory
system.realview.nvmem.bytes_inst_read::total          512                       # Number of instructions bytes read from this memory
system.realview.nvmem.num_reads::cpu.inst            8                       # Number of read requests responded to by this memory
system.realview.nvmem.num_reads::total              8                       # Number of read requests responded to by this memory
system.realview.nvmem.bw_read::cpu.inst           179                       # Total read bandwidth from this memory (bytes/s)
system.realview.nvmem.bw_read::total              179                       # Total read bandwidth from this memory (bytes/s)
system.realview.nvmem.bw_inst_read::cpu.inst          179                       # Instruction read bandwidth from this memory (bytes/s)
system.realview.nvmem.bw_inst_read::total          179                       # Instruction read bandwidth from this memory (bytes/s)
system.realview.nvmem.bw_total::cpu.inst          179                       # Total bandwidth to/from this memory (bytes/s)
system.realview.nvmem.bw_total::total             179                       # Total bandwidth to/from this memory (bytes/s)
system.cf0.dma_read_full_pages                      0                       # Number of full page size DMA reads (not PRD).
system.cf0.dma_read_bytes                        1024                       # Number of bytes transfered via DMA reads (not PRD).
system.cf0.dma_read_txs                             1                       # Number of DMA read transactions (not PRD).
system.cf0.dma_write_full_pages                   540                       # Number of full page size DMA writes.
system.cf0.dma_write_bytes                    2318336                       # Number of bytes transfered via DMA writes.
system.cf0.dma_write_txs                          631                       # Number of DMA write transactions.
system.cpu.branchPred.lookups                31017399                       # Number of BP lookups
system.cpu.branchPred.condPredicted          16820647                       # Number of conditional branches predicted
system.cpu.branchPred.condIncorrect           2503170                       # Number of conditional branches incorrect
system.cpu.branchPred.BTBLookups             18419836                       # Number of BTB lookups
system.cpu.branchPred.BTBHits                13303162                       # Number of BTB hits
system.cpu.branchPred.BTBCorrect                    0                       # Number of correct BTB predictions (this stat may not work properly.
system.cpu.branchPred.BTBHitPct             72.221935                       # BTB Hit Percentage
system.cpu.branchPred.usedRAS                 7872052                       # Number of times the RAS was used to get a target.
system.cpu.branchPred.RASInCorrect            1510670                       # Number of incorrect RAS predictions.
system.cpu_clk_domain.clock                       500                       # Clock period in ticks
system.cpu.dstage2_mmu.stage2_tlb.walker.walks            0                       # Table walker walks requested
system.cpu.dstage2_mmu.stage2_tlb.walker.walkRequestOrigin_Requested::Data            0                       # Table walker requests started/completed, data/inst
system.cpu.dstage2_mmu.stage2_tlb.walker.walkRequestOrigin_Requested::Inst            0                       # Table walker requests started/completed, data/inst
system.cpu.dstage2_mmu.stage2_tlb.walker.walkRequestOrigin_Requested::total            0                       # Table walker requests started/completed, data/inst
system.cpu.dstage2_mmu.stage2_tlb.walker.walkRequestOrigin_Completed::Data            0                       # Table walker requests started/completed, data/inst
system.cpu.dstage2_mmu.stage2_tlb.walker.walkRequestOrigin_Completed::Inst            0                       # Table walker requests started/completed, data/inst
system.cpu.dstage2_mmu.stage2_tlb.walker.walkRequestOrigin_Completed::total            0                       # Table walker requests started/completed, data/inst
system.cpu.dstage2_mmu.stage2_tlb.walker.walkRequestOrigin::total            0                       # Table walker requests started/completed, data/inst
system.cpu.dstage2_mmu.stage2_tlb.inst_hits            0                       # ITB inst hits
system.cpu.dstage2_mmu.stage2_tlb.inst_misses            0                       # ITB inst misses
system.cpu.dstage2_mmu.stage2_tlb.read_hits            0                       # DTB read hits
system.cpu.dstage2_mmu.stage2_tlb.read_misses            0                       # DTB read misses
system.cpu.dstage2_mmu.stage2_tlb.write_hits            0                       # DTB write hits
system.cpu.dstage2_mmu.stage2_tlb.write_misses            0                       # DTB write misses
system.cpu.dstage2_mmu.stage2_tlb.flush_tlb            0                       # Number of times complete TLB was flushed
system.cpu.dstage2_mmu.stage2_tlb.flush_tlb_mva            0                       # Number of times TLB was flushed by MVA
system.cpu.dstage2_mmu.stage2_tlb.flush_tlb_mva_asid            0                       # Number of times TLB was flushed by MVA & ASID
system.cpu.dstage2_mmu.stage2_tlb.flush_tlb_asid            0                       # Number of times TLB was flushed by ASID
system.cpu.dstage2_mmu.stage2_tlb.flush_entries            0                       # Number of entries that have been flushed from TLB
system.cpu.dstage2_mmu.stage2_tlb.align_faults            0                       # Number of TLB faults due to alignment restrictions
system.cpu.dstage2_mmu.stage2_tlb.prefetch_faults            0                       # Number of TLB faults due to prefetch
system.cpu.dstage2_mmu.stage2_tlb.domain_faults            0                       # Number of TLB faults due to domain restrictions
system.cpu.dstage2_mmu.stage2_tlb.perms_faults            0                       # Number of TLB faults due to permissions restrictions
system.cpu.dstage2_mmu.stage2_tlb.read_accesses            0                       # DTB read accesses
system.cpu.dstage2_mmu.stage2_tlb.write_accesses            0                       # DTB write accesses
system.cpu.dstage2_mmu.stage2_tlb.inst_accesses            0                       # ITB inst accesses
system.cpu.dstage2_mmu.stage2_tlb.hits              0                       # DTB hits
system.cpu.dstage2_mmu.stage2_tlb.misses            0                       # DTB misses
system.cpu.dstage2_mmu.stage2_tlb.accesses            0                       # DTB accesses
system.cpu.dtb.walker.walks                     65808                       # Table walker walks requested
system.cpu.dtb.walker.walksShort                65808                       # Table walker walks initiated with short descriptors
system.cpu.dtb.walker.walksShortTerminationLevel::Level1        42987                       # Level at which table walker walks with short descriptors terminate
system.cpu.dtb.walker.walksShortTerminationLevel::Level2        22821                       # Level at which table walker walks with short descriptors terminate
system.cpu.dtb.walker.walkWaitTime::samples        65808                       # Table walker wait (enqueue to first request) latency
system.cpu.dtb.walker.walkWaitTime::0           65808    100.00%    100.00% # Table walker wait (enqueue to first request) latency
system.cpu.dtb.walker.walkWaitTime::total        65808                       # Table walker wait (enqueue to first request) latency
system.cpu.dtb.walker.walkCompletionTime::samples         7823                       # Table walker service (enqueue to completion) latency
system.cpu.dtb.walker.walkCompletionTime::mean 12723.315863                       # Table walker service (enqueue to completion) latency
system.cpu.dtb.walker.walkCompletionTime::gmean 10567.827696                       # Table walker service (enqueue to completion) latency
system.cpu.dtb.walker.walkCompletionTime::stdev  8328.598591                       # Table walker service (enqueue to completion) latency
system.cpu.dtb.walker.walkCompletionTime::0-32767         7817     99.92%     99.92% # Table walker service (enqueue to completion) latency
system.cpu.dtb.walker.walkCompletionTime::131072-163839            5      0.06%     99.99% # Table walker service (enqueue to completion) latency
system.cpu.dtb.walker.walkCompletionTime::262144-294911            1      0.01%    100.00% # Table walker service (enqueue to completion) latency
system.cpu.dtb.walker.walkCompletionTime::total         7823                       # Table walker service (enqueue to completion) latency
system.cpu.dtb.walker.walksPending::samples    517922000                       # Table walker pending requests distribution
system.cpu.dtb.walker.walksPending::0       517922000    100.00%    100.00% # Table walker pending requests distribution
system.cpu.dtb.walker.walksPending::total    517922000                       # Table walker pending requests distribution
system.cpu.dtb.walker.walkPageSizes::4K          6431     82.21%     82.21% # Table walker page sizes translated
system.cpu.dtb.walker.walkPageSizes::1M          1392     17.79%    100.00% # Table walker page sizes translated
system.cpu.dtb.walker.walkPageSizes::total         7823                       # Table walker page sizes translated
system.cpu.dtb.walker.walkRequestOrigin_Requested::Data        65808                       # Table walker requests started/completed, data/inst
system.cpu.dtb.walker.walkRequestOrigin_Requested::Inst            0                       # Table walker requests started/completed, data/inst
system.cpu.dtb.walker.walkRequestOrigin_Requested::total        65808                       # Table walker requests started/completed, data/inst
system.cpu.dtb.walker.walkRequestOrigin_Completed::Data         7823                       # Table walker requests started/completed, data/inst
system.cpu.dtb.walker.walkRequestOrigin_Completed::Inst            0                       # Table walker requests started/completed, data/inst
system.cpu.dtb.walker.walkRequestOrigin_Completed::total         7823                       # Table walker requests started/completed, data/inst
system.cpu.dtb.walker.walkRequestOrigin::total        73631                       # Table walker requests started/completed, data/inst
system.cpu.dtb.inst_hits                            0                       # ITB inst hits
system.cpu.dtb.inst_misses                          0                       # ITB inst misses
system.cpu.dtb.read_hits                     24739501                       # DTB read hits
system.cpu.dtb.read_misses                      58797                       # DTB read misses
system.cpu.dtb.write_hits                    19434146                       # DTB write hits
system.cpu.dtb.write_misses                      7011                       # DTB write misses
system.cpu.dtb.flush_tlb                           64                       # Number of times complete TLB was flushed
system.cpu.dtb.flush_tlb_mva                      917                       # Number of times TLB was flushed by MVA
system.cpu.dtb.flush_tlb_mva_asid                   0                       # Number of times TLB was flushed by MVA & ASID
system.cpu.dtb.flush_tlb_asid                       0                       # Number of times TLB was flushed by ASID
system.cpu.dtb.flush_entries                     4354                       # Number of entries that have been flushed from TLB
system.cpu.dtb.align_faults                      1307                       # Number of TLB faults due to alignment restrictions
system.cpu.dtb.prefetch_faults                   1800                       # Number of TLB faults due to prefetch
system.cpu.dtb.domain_faults                        0                       # Number of TLB faults due to domain restrictions
system.cpu.dtb.perms_faults                       763                       # Number of TLB faults due to permissions restrictions
system.cpu.dtb.read_accesses                 24798298                       # DTB read accesses
system.cpu.dtb.write_accesses                19441157                       # DTB write accesses
system.cpu.dtb.inst_accesses                        0                       # ITB inst accesses
system.cpu.dtb.hits                          44173647                       # DTB hits
system.cpu.dtb.misses                           65808                       # DTB misses
system.cpu.dtb.accesses                      44239455                       # DTB accesses
system.cpu.istage2_mmu.stage2_tlb.walker.walks            0                       # Table walker walks requested
system.cpu.istage2_mmu.stage2_tlb.walker.walkRequestOrigin_Requested::Data            0                       # Table walker requests started/completed, data/inst
system.cpu.istage2_mmu.stage2_tlb.walker.walkRequestOrigin_Requested::Inst            0                       # Table walker requests started/completed, data/inst
system.cpu.istage2_mmu.stage2_tlb.walker.walkRequestOrigin_Requested::total            0                       # Table walker requests started/completed, data/inst
system.cpu.istage2_mmu.stage2_tlb.walker.walkRequestOrigin_Completed::Data            0                       # Table walker requests started/completed, data/inst
system.cpu.istage2_mmu.stage2_tlb.walker.walkRequestOrigin_Completed::Inst            0                       # Table walker requests started/completed, data/inst
system.cpu.istage2_mmu.stage2_tlb.walker.walkRequestOrigin_Completed::total            0                       # Table walker requests started/completed, data/inst
system.cpu.istage2_mmu.stage2_tlb.walker.walkRequestOrigin::total            0                       # Table walker requests started/completed, data/inst
system.cpu.istage2_mmu.stage2_tlb.inst_hits            0                       # ITB inst hits
system.cpu.istage2_mmu.stage2_tlb.inst_misses            0                       # ITB inst misses
system.cpu.istage2_mmu.stage2_tlb.read_hits            0                       # DTB read hits
system.cpu.istage2_mmu.stage2_tlb.read_misses            0                       # DTB read misses
system.cpu.istage2_mmu.stage2_tlb.write_hits            0                       # DTB write hits
system.cpu.istage2_mmu.stage2_tlb.write_misses            0                       # DTB write misses
system.cpu.istage2_mmu.stage2_tlb.flush_tlb            0                       # Number of times complete TLB was flushed
system.cpu.istage2_mmu.stage2_tlb.flush_tlb_mva            0                       # Number of times TLB was flushed by MVA
system.cpu.istage2_mmu.stage2_tlb.flush_tlb_mva_asid            0                       # Number of times TLB was flushed by MVA & ASID
system.cpu.istage2_mmu.stage2_tlb.flush_tlb_asid            0                       # Number of times TLB was flushed by ASID
system.cpu.istage2_mmu.stage2_tlb.flush_entries            0                       # Number of entries that have been flushed from TLB
system.cpu.istage2_mmu.stage2_tlb.align_faults            0                       # Number of TLB faults due to alignment restrictions
system.cpu.istage2_mmu.stage2_tlb.prefetch_faults            0                       # Number of TLB faults due to prefetch
system.cpu.istage2_mmu.stage2_tlb.domain_faults            0                       # Number of TLB faults due to domain restrictions
system.cpu.istage2_mmu.stage2_tlb.perms_faults            0                       # Number of TLB faults due to permissions restrictions
system.cpu.istage2_mmu.stage2_tlb.read_accesses            0                       # DTB read accesses
system.cpu.istage2_mmu.stage2_tlb.write_accesses            0                       # DTB write accesses
system.cpu.istage2_mmu.stage2_tlb.inst_accesses            0                       # ITB inst accesses
system.cpu.istage2_mmu.stage2_tlb.hits              0                       # DTB hits
system.cpu.istage2_mmu.stage2_tlb.misses            0                       # DTB misses
system.cpu.istage2_mmu.stage2_tlb.accesses            0                       # DTB accesses
system.cpu.itb.walker.walks                      5439                       # Table walker walks requested
system.cpu.itb.walker.walksShort                 5439                       # Table walker walks initiated with short descriptors
system.cpu.itb.walker.walksShortTerminationLevel::Level1          319                       # Level at which table walker walks with short descriptors terminate
system.cpu.itb.walker.walksShortTerminationLevel::Level2         5120                       # Level at which table walker walks with short descriptors terminate
system.cpu.itb.walker.walkWaitTime::samples         5439                       # Table walker wait (enqueue to first request) latency
system.cpu.itb.walker.walkWaitTime::0            5439    100.00%    100.00% # Table walker wait (enqueue to first request) latency
system.cpu.itb.walker.walkWaitTime::total         5439                       # Table walker wait (enqueue to first request) latency
system.cpu.itb.walker.walkCompletionTime::samples         3184                       # Table walker service (enqueue to completion) latency
system.cpu.itb.walker.walkCompletionTime::mean 12910.175879                       # Table walker service (enqueue to completion) latency
system.cpu.itb.walker.walkCompletionTime::gmean 10824.296487                       # Table walker service (enqueue to completion) latency
system.cpu.itb.walker.walkCompletionTime::stdev  7389.330309                       # Table walker service (enqueue to completion) latency
system.cpu.itb.walker.walkCompletionTime::0-16383         2456     77.14%     77.14% # Table walker service (enqueue to completion) latency
system.cpu.itb.walker.walkCompletionTime::16384-32767          727     22.83%     99.97% # Table walker service (enqueue to completion) latency
system.cpu.itb.walker.walkCompletionTime::131072-147455            1      0.03%    100.00% # Table walker service (enqueue to completion) latency
system.cpu.itb.walker.walkCompletionTime::total         3184                       # Table walker service (enqueue to completion) latency
system.cpu.itb.walker.walksPending::samples    517267500                       # Table walker pending requests distribution
system.cpu.itb.walker.walksPending::0       517267500    100.00%    100.00% # Table walker pending requests distribution
system.cpu.itb.walker.walksPending::total    517267500                       # Table walker pending requests distribution
system.cpu.itb.walker.walkPageSizes::4K          2874     90.26%     90.26% # Table walker page sizes translated
system.cpu.itb.walker.walkPageSizes::1M           310      9.74%    100.00% # Table walker page sizes translated
system.cpu.itb.walker.walkPageSizes::total         3184                       # Table walker page sizes translated
system.cpu.itb.walker.walkRequestOrigin_Requested::Data            0                       # Table walker requests started/completed, data/inst
system.cpu.itb.walker.walkRequestOrigin_Requested::Inst         5439                       # Table walker requests started/completed, data/inst
system.cpu.itb.walker.walkRequestOrigin_Requested::total         5439                       # Table walker requests started/completed, data/inst
system.cpu.itb.walker.walkRequestOrigin_Completed::Data            0                       # Table walker requests started/completed, data/inst
system.cpu.itb.walker.walkRequestOrigin_Completed::Inst         3184                       # Table walker requests started/completed, data/inst
system.cpu.itb.walker.walkRequestOrigin_Completed::total         3184                       # Table walker requests started/completed, data/inst
system.cpu.itb.walker.walkRequestOrigin::total         8623                       # Table walker requests started/completed, data/inst
system.cpu.itb.inst_hits                     57560838                       # ITB inst hits
system.cpu.itb.inst_misses                       5439                       # ITB inst misses
system.cpu.itb.read_hits                            0                       # DTB read hits
system.cpu.itb.read_misses                          0                       # DTB read misses
system.cpu.itb.write_hits                           0                       # DTB write hits
system.cpu.itb.write_misses                         0                       # DTB write misses
system.cpu.itb.flush_tlb                           64                       # Number of times complete TLB was flushed
system.cpu.itb.flush_tlb_mva                      917                       # Number of times TLB was flushed by MVA
system.cpu.itb.flush_tlb_mva_asid                   0                       # Number of times TLB was flushed by MVA & ASID
system.cpu.itb.flush_tlb_asid                       0                       # Number of times TLB was flushed by ASID
system.cpu.itb.flush_entries                     2972                       # Number of entries that have been flushed from TLB
system.cpu.itb.align_faults                         0                       # Number of TLB faults due to alignment restrictions
system.cpu.itb.prefetch_faults                      0                       # Number of TLB faults due to prefetch
system.cpu.itb.domain_faults                        0                       # Number of TLB faults due to domain restrictions
system.cpu.itb.perms_faults                      8472                       # Number of TLB faults due to permissions restrictions
system.cpu.itb.read_accesses                        0                       # DTB read accesses
system.cpu.itb.write_accesses                       0                       # DTB write accesses
system.cpu.itb.inst_accesses                 57566277                       # ITB inst accesses
system.cpu.itb.hits                          57560838                       # DTB hits
system.cpu.itb.misses                            5439                       # DTB misses
system.cpu.itb.accesses                      57566277                       # DTB accesses
system.cpu.numCycles                        333233745                       # number of cpu cycles simulated
system.cpu.numWorkItemsStarted                      0                       # number of work items this cpu started
system.cpu.numWorkItemsCompleted                    0                       # number of work items this cpu completed
system.cpu.committedInsts                   111935485                       # Number of instructions committed
system.cpu.committedOps                     135338943                       # Number of ops (including micro ops) committed
system.cpu.discardedOps                       7768370                       # Number of ops (including micro ops) which were discarded before commit
system.cpu.numFetchSuspends                      3035                       # Number of times Execute suspended instruction fetching
system.cpu.quiesceCycles                   5383936377                       # Total number of cycles that CPU has spent quiesced or waiting for an interrupt
system.cpu.cpi                               2.977016                       # CPI: cycles per instruction
system.cpu.ipc                               0.335907                       # IPC: instructions per cycle
system.cpu.kern.inst.arm                            0                       # number of arm instructions executed
system.cpu.kern.inst.quiesce                     3035                       # number of quiesce instructions executed
system.cpu.tickCycles                       228546607                       # Number of cycles that the object actually ticked
system.cpu.idleCycles                       104687138                       # Total number of cycles that the object has spent stopped
system.cpu.dcache.tags.replacements            843126                       # number of replacements
system.cpu.dcache.tags.tagsinuse           511.899809                       # Cycle average of tags in use
system.cpu.dcache.tags.total_refs            42573204                       # Total number of references to valid blocks.
system.cpu.dcache.tags.sampled_refs            843638                       # Sample count of references to valid blocks.
system.cpu.dcache.tags.avg_refs             50.463829                       # Average number of references to valid blocks.
system.cpu.dcache.tags.warmup_cycle         594757500                       # Cycle when the warmup percentage was hit.
system.cpu.dcache.tags.occ_blocks::cpu.data   511.899809                       # Average occupied blocks per requestor
system.cpu.dcache.tags.occ_percent::cpu.data     0.999804                       # Average percentage of cache occupancy
system.cpu.dcache.tags.occ_percent::total     0.999804                       # Average percentage of cache occupancy
system.cpu.dcache.tags.occ_task_id_blocks::1024          512                       # Occupied blocks per task id
system.cpu.dcache.tags.age_task_id_blocks_1024::0           99                       # Occupied blocks per task id
system.cpu.dcache.tags.age_task_id_blocks_1024::1          358                       # Occupied blocks per task id
system.cpu.dcache.tags.age_task_id_blocks_1024::2           55                       # Occupied blocks per task id
system.cpu.dcache.tags.occ_task_id_percent::1024            1                       # Percentage of cache occupancy per task id
system.cpu.dcache.tags.tag_accesses         176066237                       # Number of tag accesses
system.cpu.dcache.tags.data_accesses        176066237                       # Number of data accesses
system.cpu.dcache.ReadReq_hits::cpu.data     23041742                       # number of ReadReq hits
system.cpu.dcache.ReadReq_hits::total        23041742                       # number of ReadReq hits
system.cpu.dcache.WriteReq_hits::cpu.data     18267850                       # number of WriteReq hits
system.cpu.dcache.WriteReq_hits::total       18267850                       # number of WriteReq hits
system.cpu.dcache.SoftPFReq_hits::cpu.data       356487                       # number of SoftPFReq hits
system.cpu.dcache.SoftPFReq_hits::total        356487                       # number of SoftPFReq hits
system.cpu.dcache.LoadLockedReq_hits::cpu.data       443903                       # number of LoadLockedReq hits
system.cpu.dcache.LoadLockedReq_hits::total       443903                       # number of LoadLockedReq hits
system.cpu.dcache.StoreCondReq_hits::cpu.data       460330                       # number of StoreCondReq hits
system.cpu.dcache.StoreCondReq_hits::total       460330                       # number of StoreCondReq hits
system.cpu.dcache.demand_hits::cpu.data      41309592                       # number of demand (read+write) hits
system.cpu.dcache.demand_hits::total         41309592                       # number of demand (read+write) hits
system.cpu.dcache.overall_hits::cpu.data     41666079                       # number of overall hits
system.cpu.dcache.overall_hits::total        41666079                       # number of overall hits
system.cpu.dcache.ReadReq_misses::cpu.data       494543                       # number of ReadReq misses
system.cpu.dcache.ReadReq_misses::total        494543                       # number of ReadReq misses
system.cpu.dcache.WriteReq_misses::cpu.data       548727                       # number of WriteReq misses
system.cpu.dcache.WriteReq_misses::total       548727                       # number of WriteReq misses
system.cpu.dcache.SoftPFReq_misses::cpu.data       169803                       # number of SoftPFReq misses
system.cpu.dcache.SoftPFReq_misses::total       169803                       # number of SoftPFReq misses
system.cpu.dcache.LoadLockedReq_misses::cpu.data        22255                       # number of LoadLockedReq misses
system.cpu.dcache.LoadLockedReq_misses::total        22255                       # number of LoadLockedReq misses
system.cpu.dcache.StoreCondReq_misses::cpu.data            2                       # number of StoreCondReq misses
system.cpu.dcache.StoreCondReq_misses::total            2                       # number of StoreCondReq misses
system.cpu.dcache.demand_misses::cpu.data      1043270                       # number of demand (read+write) misses
system.cpu.dcache.demand_misses::total        1043270                       # number of demand (read+write) misses
system.cpu.dcache.overall_misses::cpu.data      1213073                       # number of overall misses
system.cpu.dcache.overall_misses::total       1213073                       # number of overall misses
system.cpu.dcache.ReadReq_miss_latency::cpu.data   8036420500                       # number of ReadReq miss cycles
system.cpu.dcache.ReadReq_miss_latency::total   8036420500                       # number of ReadReq miss cycles
system.cpu.dcache.WriteReq_miss_latency::cpu.data  35621632480                       # number of WriteReq miss cycles
system.cpu.dcache.WriteReq_miss_latency::total  35621632480                       # number of WriteReq miss cycles
system.cpu.dcache.LoadLockedReq_miss_latency::cpu.data    292921000                       # number of LoadLockedReq miss cycles
system.cpu.dcache.LoadLockedReq_miss_latency::total    292921000                       # number of LoadLockedReq miss cycles
system.cpu.dcache.StoreCondReq_miss_latency::cpu.data       167000                       # number of StoreCondReq miss cycles
system.cpu.dcache.StoreCondReq_miss_latency::total       167000                       # number of StoreCondReq miss cycles
system.cpu.dcache.demand_miss_latency::cpu.data  43658052980                       # number of demand (read+write) miss cycles
system.cpu.dcache.demand_miss_latency::total  43658052980                       # number of demand (read+write) miss cycles
system.cpu.dcache.overall_miss_latency::cpu.data  43658052980                       # number of overall miss cycles
system.cpu.dcache.overall_miss_latency::total  43658052980                       # number of overall miss cycles
system.cpu.dcache.ReadReq_accesses::cpu.data     23536285                       # number of ReadReq accesses(hits+misses)
system.cpu.dcache.ReadReq_accesses::total     23536285                       # number of ReadReq accesses(hits+misses)
system.cpu.dcache.WriteReq_accesses::cpu.data     18816577                       # number of WriteReq accesses(hits+misses)
system.cpu.dcache.WriteReq_accesses::total     18816577                       # number of WriteReq accesses(hits+misses)
system.cpu.dcache.SoftPFReq_accesses::cpu.data       526290                       # number of SoftPFReq accesses(hits+misses)
system.cpu.dcache.SoftPFReq_accesses::total       526290                       # number of SoftPFReq accesses(hits+misses)
system.cpu.dcache.LoadLockedReq_accesses::cpu.data       466158                       # number of LoadLockedReq accesses(hits+misses)
system.cpu.dcache.LoadLockedReq_accesses::total       466158                       # number of LoadLockedReq accesses(hits+misses)
system.cpu.dcache.StoreCondReq_accesses::cpu.data       460332                       # number of StoreCondReq accesses(hits+misses)
system.cpu.dcache.StoreCondReq_accesses::total       460332                       # number of StoreCondReq accesses(hits+misses)
system.cpu.dcache.demand_accesses::cpu.data     42352862                       # number of demand (read+write) accesses
system.cpu.dcache.demand_accesses::total     42352862                       # number of demand (read+write) accesses
system.cpu.dcache.overall_accesses::cpu.data     42879152                       # number of overall (read+write) accesses
system.cpu.dcache.overall_accesses::total     42879152                       # number of overall (read+write) accesses
system.cpu.dcache.ReadReq_miss_rate::cpu.data     0.021012                       # miss rate for ReadReq accesses
system.cpu.dcache.ReadReq_miss_rate::total     0.021012                       # miss rate for ReadReq accesses
system.cpu.dcache.WriteReq_miss_rate::cpu.data     0.029162                       # miss rate for WriteReq accesses
system.cpu.dcache.WriteReq_miss_rate::total     0.029162                       # miss rate for WriteReq accesses
system.cpu.dcache.SoftPFReq_miss_rate::cpu.data     0.322642                       # miss rate for SoftPFReq accesses
system.cpu.dcache.SoftPFReq_miss_rate::total     0.322642                       # miss rate for SoftPFReq accesses
system.cpu.dcache.LoadLockedReq_miss_rate::cpu.data     0.047741                       # miss rate for LoadLockedReq accesses
system.cpu.dcache.LoadLockedReq_miss_rate::total     0.047741                       # miss rate for LoadLockedReq accesses
system.cpu.dcache.StoreCondReq_miss_rate::cpu.data     0.000004                       # miss rate for StoreCondReq accesses
system.cpu.dcache.StoreCondReq_miss_rate::total     0.000004                       # miss rate for StoreCondReq accesses
system.cpu.dcache.demand_miss_rate::cpu.data     0.024633                       # miss rate for demand accesses
system.cpu.dcache.demand_miss_rate::total     0.024633                       # miss rate for demand accesses
system.cpu.dcache.overall_miss_rate::cpu.data     0.028291                       # miss rate for overall accesses
system.cpu.dcache.overall_miss_rate::total     0.028291                       # miss rate for overall accesses
system.cpu.dcache.ReadReq_avg_miss_latency::cpu.data 16250.195635                       # average ReadReq miss latency
system.cpu.dcache.ReadReq_avg_miss_latency::total 16250.195635                       # average ReadReq miss latency
system.cpu.dcache.WriteReq_avg_miss_latency::cpu.data 64916.857527                       # average WriteReq miss latency
system.cpu.dcache.WriteReq_avg_miss_latency::total 64916.857527                       # average WriteReq miss latency
system.cpu.dcache.LoadLockedReq_avg_miss_latency::cpu.data 13162.031004                       # average LoadLockedReq miss latency
system.cpu.dcache.LoadLockedReq_avg_miss_latency::total 13162.031004                       # average LoadLockedReq miss latency
system.cpu.dcache.StoreCondReq_avg_miss_latency::cpu.data        83500                       # average StoreCondReq miss latency
system.cpu.dcache.StoreCondReq_avg_miss_latency::total        83500                       # average StoreCondReq miss latency
system.cpu.dcache.demand_avg_miss_latency::cpu.data 41847.319467                       # average overall miss latency
system.cpu.dcache.demand_avg_miss_latency::total 41847.319467                       # average overall miss latency
system.cpu.dcache.overall_avg_miss_latency::cpu.data 35989.633748                       # average overall miss latency
system.cpu.dcache.overall_avg_miss_latency::total 35989.633748                       # average overall miss latency
system.cpu.dcache.blocked_cycles::no_mshrs          277                       # number of cycles access was blocked
system.cpu.dcache.blocked_cycles::no_targets            0                       # number of cycles access was blocked
system.cpu.dcache.blocked::no_mshrs                23                       # number of cycles access was blocked
system.cpu.dcache.blocked::no_targets               0                       # number of cycles access was blocked
system.cpu.dcache.avg_blocked_cycles::no_mshrs    12.043478                       # average number of cycles each access was blocked
system.cpu.dcache.avg_blocked_cycles::no_targets          nan                       # average number of cycles each access was blocked
system.cpu.dcache.fast_writes                       0                       # number of fast writes performed
system.cpu.dcache.cache_copies                      0                       # number of cache copies performed
system.cpu.dcache.writebacks::writebacks       700279                       # number of writebacks
system.cpu.dcache.writebacks::total            700279                       # number of writebacks
system.cpu.dcache.ReadReq_mshr_hits::cpu.data        76721                       # number of ReadReq MSHR hits
system.cpu.dcache.ReadReq_mshr_hits::total        76721                       # number of ReadReq MSHR hits
system.cpu.dcache.WriteReq_mshr_hits::cpu.data       249708                       # number of WriteReq MSHR hits
system.cpu.dcache.WriteReq_mshr_hits::total       249708                       # number of WriteReq MSHR hits
system.cpu.dcache.LoadLockedReq_mshr_hits::cpu.data        14008                       # number of LoadLockedReq MSHR hits
system.cpu.dcache.LoadLockedReq_mshr_hits::total        14008                       # number of LoadLockedReq MSHR hits
system.cpu.dcache.demand_mshr_hits::cpu.data       326429                       # number of demand (read+write) MSHR hits
system.cpu.dcache.demand_mshr_hits::total       326429                       # number of demand (read+write) MSHR hits
system.cpu.dcache.overall_mshr_hits::cpu.data       326429                       # number of overall MSHR hits
system.cpu.dcache.overall_mshr_hits::total       326429                       # number of overall MSHR hits
system.cpu.dcache.ReadReq_mshr_misses::cpu.data       417822                       # number of ReadReq MSHR misses
system.cpu.dcache.ReadReq_mshr_misses::total       417822                       # number of ReadReq MSHR misses
system.cpu.dcache.WriteReq_mshr_misses::cpu.data       299019                       # number of WriteReq MSHR misses
system.cpu.dcache.WriteReq_mshr_misses::total       299019                       # number of WriteReq MSHR misses
system.cpu.dcache.SoftPFReq_mshr_misses::cpu.data       121366                       # number of SoftPFReq MSHR misses
system.cpu.dcache.SoftPFReq_mshr_misses::total       121366                       # number of SoftPFReq MSHR misses
system.cpu.dcache.LoadLockedReq_mshr_misses::cpu.data         8247                       # number of LoadLockedReq MSHR misses
system.cpu.dcache.LoadLockedReq_mshr_misses::total         8247                       # number of LoadLockedReq MSHR misses
system.cpu.dcache.StoreCondReq_mshr_misses::cpu.data            2                       # number of StoreCondReq MSHR misses
system.cpu.dcache.StoreCondReq_mshr_misses::total            2                       # number of StoreCondReq MSHR misses
system.cpu.dcache.demand_mshr_misses::cpu.data       716841                       # number of demand (read+write) MSHR misses
system.cpu.dcache.demand_mshr_misses::total       716841                       # number of demand (read+write) MSHR misses
system.cpu.dcache.overall_mshr_misses::cpu.data       838207                       # number of overall MSHR misses
system.cpu.dcache.overall_mshr_misses::total       838207                       # number of overall MSHR misses
system.cpu.dcache.ReadReq_mshr_uncacheable::cpu.data        31130                       # number of ReadReq MSHR uncacheable
system.cpu.dcache.ReadReq_mshr_uncacheable::total        31130                       # number of ReadReq MSHR uncacheable
system.cpu.dcache.WriteReq_mshr_uncacheable::cpu.data        27584                       # number of WriteReq MSHR uncacheable
system.cpu.dcache.WriteReq_mshr_uncacheable::total        27584                       # number of WriteReq MSHR uncacheable
system.cpu.dcache.overall_mshr_uncacheable_misses::cpu.data        58714                       # number of overall MSHR uncacheable misses
system.cpu.dcache.overall_mshr_uncacheable_misses::total        58714                       # number of overall MSHR uncacheable misses
system.cpu.dcache.ReadReq_mshr_miss_latency::cpu.data   6533285000                       # number of ReadReq MSHR miss cycles
system.cpu.dcache.ReadReq_mshr_miss_latency::total   6533285000                       # number of ReadReq MSHR miss cycles
system.cpu.dcache.WriteReq_mshr_miss_latency::cpu.data  19191527000                       # number of WriteReq MSHR miss cycles
system.cpu.dcache.WriteReq_mshr_miss_latency::total  19191527000                       # number of WriteReq MSHR miss cycles
system.cpu.dcache.SoftPFReq_mshr_miss_latency::cpu.data   1710229000                       # number of SoftPFReq MSHR miss cycles
system.cpu.dcache.SoftPFReq_mshr_miss_latency::total   1710229000                       # number of SoftPFReq MSHR miss cycles
system.cpu.dcache.LoadLockedReq_mshr_miss_latency::cpu.data    114982000                       # number of LoadLockedReq MSHR miss cycles
system.cpu.dcache.LoadLockedReq_mshr_miss_latency::total    114982000                       # number of LoadLockedReq MSHR miss cycles
system.cpu.dcache.StoreCondReq_mshr_miss_latency::cpu.data       165000                       # number of StoreCondReq MSHR miss cycles
system.cpu.dcache.StoreCondReq_mshr_miss_latency::total       165000                       # number of StoreCondReq MSHR miss cycles
system.cpu.dcache.demand_mshr_miss_latency::cpu.data  25724812000                       # number of demand (read+write) MSHR miss cycles
system.cpu.dcache.demand_mshr_miss_latency::total  25724812000                       # number of demand (read+write) MSHR miss cycles
system.cpu.dcache.overall_mshr_miss_latency::cpu.data  27435041000                       # number of overall MSHR miss cycles
system.cpu.dcache.overall_mshr_miss_latency::total  27435041000                       # number of overall MSHR miss cycles
system.cpu.dcache.ReadReq_mshr_uncacheable_latency::cpu.data   6277494000                       # number of ReadReq MSHR uncacheable cycles
system.cpu.dcache.ReadReq_mshr_uncacheable_latency::total   6277494000                       # number of ReadReq MSHR uncacheable cycles
system.cpu.dcache.WriteReq_mshr_uncacheable_latency::cpu.data   5085199500                       # number of WriteReq MSHR uncacheable cycles
system.cpu.dcache.WriteReq_mshr_uncacheable_latency::total   5085199500                       # number of WriteReq MSHR uncacheable cycles
system.cpu.dcache.overall_mshr_uncacheable_latency::cpu.data  11362693500                       # number of overall MSHR uncacheable cycles
[...]
system.iocache.WriteLineReq_miss_latency::total   4719366143                       # number of WriteLineReq miss cycles
system.iocache.demand_miss_latency::realview.ide     29051377                       # number of demand (read+write) miss cycles
system.iocache.demand_miss_latency::total     29051377                       # number of demand (read+write) miss cycles
system.iocache.overall_miss_latency::realview.ide     29051377                       # number of overall miss cycles
system.iocache.overall_miss_latency::total     29051377                       # number of overall miss cycles
system.iocache.ReadReq_accesses::realview.ide          234                       # number of ReadReq accesses(hits+misses)
system.iocache.ReadReq_accesses::total            234                       # number of ReadReq accesses(hits+misses)
system.iocache.WriteLineReq_accesses::realview.ide        36224                       # number of WriteLineReq accesses(hits+misses)
system.iocache.WriteLineReq_accesses::total        36224                       # number of WriteLineReq accesses(hits+misses)
system.iocache.demand_accesses::realview.ide          234                       # number of demand (read+write) accesses
system.iocache.demand_accesses::total             234                       # number of demand (read+write) accesses
system.iocache.overall_accesses::realview.ide          234                       # number of overall (read+write) accesses
system.iocache.overall_accesses::total            234                       # number of overall (read+write) accesses
system.iocache.ReadReq_miss_rate::realview.ide            1                       # miss rate for ReadReq accesses
system.iocache.ReadReq_miss_rate::total             1                       # miss rate for ReadReq accesses
system.iocache.WriteLineReq_miss_rate::realview.ide            1                       # miss rate for WriteLineReq accesses
system.iocache.WriteLineReq_miss_rate::total            1                       # miss rate for WriteLineReq accesses
system.iocache.demand_miss_rate::realview.ide            1                       # miss rate for demand accesses
system.iocache.demand_miss_rate::total              1                       # miss rate for demand accesses
system.iocache.overall_miss_rate::realview.ide            1                       # miss rate for overall accesses
system.iocache.overall_miss_rate::total             1                       # miss rate for overall accesses
system.iocache.ReadReq_avg_miss_latency::realview.ide 124151.183761                       # average ReadReq miss latency
system.iocache.ReadReq_avg_miss_latency::total 124151.183761                       # average ReadReq miss latency
system.iocache.WriteLineReq_avg_miss_latency::realview.ide 130282.855096                       # average WriteLineReq miss latency
system.iocache.WriteLineReq_avg_miss_latency::total 130282.855096                       # average WriteLineReq miss latency
system.iocache.demand_avg_miss_latency::realview.ide 124151.183761                       # average overall miss latency
system.iocache.demand_avg_miss_latency::total 124151.183761                       # average overall miss latency
system.iocache.overall_avg_miss_latency::realview.ide 124151.183761                       # average overall miss latency
system.iocache.overall_avg_miss_latency::total 124151.183761                       # average overall miss latency
system.iocache.blocked_cycles::no_mshrs           731                       # number of cycles access was blocked
system.iocache.blocked_cycles::no_targets            0                       # number of cycles access was blocked
system.iocache.blocked::no_mshrs                   70                       # number of cycles access was blocked
system.iocache.blocked::no_targets                  0                       # number of cycles access was blocked
system.iocache.avg_blocked_cycles::no_mshrs    10.442857                       # average number of cycles each access was blocked
system.iocache.avg_blocked_cycles::no_targets          nan                       # average number of cycles each access was blocked
system.iocache.fast_writes                          0                       # number of fast writes performed
system.iocache.cache_copies                         0                       # number of cache copies performed
system.iocache.writebacks::writebacks           36190                       # number of writebacks
system.iocache.writebacks::total                36190                       # number of writebacks
system.iocache.ReadReq_mshr_misses::realview.ide          234                       # number of ReadReq MSHR misses
system.iocache.ReadReq_mshr_misses::total          234                       # number of ReadReq MSHR misses
system.iocache.WriteLineReq_mshr_misses::realview.ide        36224                       # number of WriteLineReq MSHR misses
system.iocache.WriteLineReq_mshr_misses::total        36224                       # number of WriteLineReq MSHR misses
system.iocache.demand_mshr_misses::realview.ide          234                       # number of demand (read+write) MSHR misses
system.iocache.demand_mshr_misses::total          234                       # number of demand (read+write) MSHR misses
system.iocache.overall_mshr_misses::realview.ide          234                       # number of overall MSHR misses
system.iocache.overall_mshr_misses::total          234                       # number of overall MSHR misses
system.iocache.ReadReq_mshr_miss_latency::realview.ide     17351377                       # number of ReadReq MSHR miss cycles
system.iocache.ReadReq_mshr_miss_latency::total     17351377                       # number of ReadReq MSHR miss cycles
system.iocache.WriteLineReq_mshr_miss_latency::realview.ide   2908166143                       # number of WriteLineReq MSHR miss cycles
system.iocache.WriteLineReq_mshr_miss_latency::total   2908166143                       # number of WriteLineReq MSHR miss cycles
system.iocache.demand_mshr_miss_latency::realview.ide     17351377                       # number of demand (read+write) MSHR miss cycles
system.iocache.demand_mshr_miss_latency::total     17351377                       # number of demand (read+write) MSHR miss cycles
system.iocache.overall_mshr_miss_latency::realview.ide     17351377                       # number of overall MSHR miss cycles
system.iocache.overall_mshr_miss_latency::total     17351377                       # number of overall MSHR miss cycles
system.iocache.ReadReq_mshr_miss_rate::realview.ide            1                       # mshr miss rate for ReadReq accesses
system.iocache.ReadReq_mshr_miss_rate::total            1                       # mshr miss rate for ReadReq accesses
system.iocache.WriteLineReq_mshr_miss_rate::realview.ide            1                       # mshr miss rate for WriteLineReq accesses
system.iocache.WriteLineReq_mshr_miss_rate::total            1                       # mshr miss rate for WriteLineReq accesses
system.iocache.demand_mshr_miss_rate::realview.ide            1                       # mshr miss rate for demand accesses
system.iocache.demand_mshr_miss_rate::total            1                       # mshr miss rate for demand accesses
system.iocache.overall_mshr_miss_rate::realview.ide            1                       # mshr miss rate for overall accesses
system.iocache.overall_mshr_miss_rate::total            1                       # mshr miss rate for overall accesses
system.iocache.ReadReq_avg_mshr_miss_latency::realview.ide 74151.183761                       # average ReadReq mshr miss latency
system.iocache.ReadReq_avg_mshr_miss_latency::total 74151.183761                       # average ReadReq mshr miss latency
system.iocache.WriteLineReq_avg_mshr_miss_latency::realview.ide 80282.855096                       # average WriteLineReq mshr miss latency
system.iocache.WriteLineReq_avg_mshr_miss_latency::total 80282.855096                       # average WriteLineReq mshr miss latency
system.iocache.demand_avg_mshr_miss_latency::realview.ide 74151.183761                       # average overall mshr miss latency
system.iocache.demand_avg_mshr_miss_latency::total 74151.183761                       # average overall mshr miss latency
system.iocache.overall_avg_mshr_miss_latency::realview.ide 74151.183761                       # average overall mshr miss latency
system.iocache.overall_avg_mshr_miss_latency::total 74151.183761                       # average overall mshr miss latency
system.iocache.no_allocate_misses                   0                       # Number of misses that were no-allocate
system.membus.trans_dist::ReadReq               34893                       # Transaction distribution
system.membus.trans_dist::ReadResp              72333                       # Transaction distribution
system.membus.trans_dist::WriteReq              27584                       # Transaction distribution
system.membus.trans_dist::WriteResp             27584                       # Transaction distribution
system.membus.trans_dist::WritebackDirty       124020                       # Transaction distribution
system.membus.trans_dist::CleanEvict             8585                       # Transaction distribution
system.membus.trans_dist::UpgradeReq             4599                       # Transaction distribution
system.membus.trans_dist::SCUpgradeReq              2                       # Transaction distribution
system.membus.trans_dist::UpgradeResp            4601                       # Transaction distribution
system.membus.trans_dist::ReadExReq            129063                       # Transaction distribution
system.membus.trans_dist::ReadExResp           129063                       # Transaction distribution
system.membus.trans_dist::ReadSharedReq         37440                       # Transaction distribution
system.membus.trans_dist::InvalidateReq         36224                       # Transaction distribution
system.membus.trans_dist::InvalidateResp        36224                       # Transaction distribution
system.membus.pkt_count_system.cpu.l2cache.mem_side::system.bridge.slave       105478                       # Packet count per connected master and slave (bytes)
system.membus.pkt_count_system.cpu.l2cache.mem_side::system.realview.nvmem.port           16                       # Packet count per connected master and slave (bytes)
system.membus.pkt_count_system.cpu.l2cache.mem_side::system.realview.gic.pio         2074                       # Packet count per connected master and slave (bytes)
system.membus.pkt_count_system.cpu.l2cache.mem_side::system.physmem.port       455241                       # Packet count per connected master and slave (bytes)
system.membus.pkt_count_system.cpu.l2cache.mem_side::total       562809                       # Packet count per connected master and slave (bytes)
system.membus.pkt_count_system.iocache.mem_side::system.physmem.port       108900                       # Packet count per connected master and slave (bytes)
system.membus.pkt_count_system.iocache.mem_side::total       108900                       # Packet count per connected master and slave (bytes)
system.membus.pkt_count::total                 671709                       # Packet count per connected master and slave (bytes)
system.membus.pkt_size_system.cpu.l2cache.mem_side::system.bridge.slave       159125                       # Cumulative packet size per connected master and slave (bytes)
system.membus.pkt_size_system.cpu.l2cache.mem_side::system.realview.nvmem.port          512                       # Cumulative packet size per connected master and slave (bytes)
system.membus.pkt_size_system.cpu.l2cache.mem_side::system.realview.gic.pio         4148                       # Cumulative packet size per connected master and slave (bytes)
system.membus.pkt_size_system.cpu.l2cache.mem_side::system.physmem.port     16504224                       # Cumulative packet size per connected master and slave (bytes)
system.membus.pkt_size_system.cpu.l2cache.mem_side::total     16668009                       # Cumulative packet size per connected master and slave (bytes)
system.membus.pkt_size_system.iocache.mem_side::system.physmem.port      2317120                       # Cumulative packet size per connected master and slave (bytes)
system.membus.pkt_size_system.iocache.mem_side::total      2317120                       # Cumulative packet size per connected master and slave (bytes)
system.membus.pkt_size::total                18985129                       # Cumulative packet size per connected master and slave (bytes)
system.membus.snoops                              506                       # Total snoops (count)
system.membus.snoop_fanout::samples            402632                       # Request fanout histogram
system.membus.snoop_fanout::mean                    1                       # Request fanout histogram
system.membus.snoop_fanout::stdev                   0                       # Request fanout histogram
system.membus.snoop_fanout::underflows              0      0.00%      0.00% # Request fanout histogram
system.membus.snoop_fanout::0                       0      0.00%      0.00% # Request fanout histogram
system.membus.snoop_fanout::1                  402632    100.00%    100.00% # Request fanout histogram
system.membus.snoop_fanout::2                       0      0.00%    100.00% # Request fanout histogram
system.membus.snoop_fanout::overflows               0      0.00%    100.00% # Request fanout histogram
system.membus.snoop_fanout::min_value               1                       # Request fanout histogram
system.membus.snoop_fanout::max_value               1                       # Request fanout histogram
system.membus.snoop_fanout::total              402632                       # Request fanout histogram
system.membus.reqLayer0.occupancy            87539000                       # Layer occupancy (ticks)
system.membus.reqLayer0.utilization               0.0                       # Layer utilization (%)
system.membus.reqLayer1.occupancy                8500                       # Layer occupancy (ticks)
system.membus.reqLayer1.utilization               0.0                       # Layer utilization (%)
system.membus.reqLayer2.occupancy             1722000                       # Layer occupancy (ticks)
system.membus.reqLayer2.utilization               0.0                       # Layer utilization (%)
system.membus.reqLayer5.occupancy           878086902                       # Layer occupancy (ticks)
system.membus.reqLayer5.utilization               0.0                       # Layer utilization (%)
system.membus.respLayer2.occupancy          999035643                       # Layer occupancy (ticks)
system.membus.respLayer2.utilization              0.0                       # Layer utilization (%)
system.membus.respLayer3.occupancy           64196432                       # Layer occupancy (ticks)
system.membus.respLayer3.utilization              0.0                       # Layer utilization (%)
system.realview.ethernet.descDMAReads               0                       # Number of descriptors the device read w/ DMA
system.realview.ethernet.descDMAWrites              0                       # Number of descriptors the device wrote w/ DMA
system.realview.ethernet.descDmaReadBytes            0                       # number of descriptor bytes read w/ DMA
system.realview.ethernet.descDmaWriteBytes            0                       # number of descriptor bytes write w/ DMA
system.realview.ethernet.postedSwi                  0                       # number of software interrupts posted to CPU
system.realview.ethernet.coalescedSwi             nan                       # average number of Swi's coalesced into each post
system.realview.ethernet.totalSwi                   0                       # total number of Swi written to ISR
system.realview.ethernet.postedRxIdle               0                       # number of rxIdle interrupts posted to CPU
system.realview.ethernet.coalescedRxIdle          nan                       # average number of RxIdle's coalesced into each post
system.realview.ethernet.totalRxIdle                0                       # total number of RxIdle written to ISR
system.realview.ethernet.postedRxOk                 0                       # number of RxOk interrupts posted to CPU
system.realview.ethernet.coalescedRxOk            nan                       # average number of RxOk's coalesced into each post
system.realview.ethernet.totalRxOk                  0                       # total number of RxOk written to ISR
system.realview.ethernet.postedRxDesc               0                       # number of RxDesc interrupts posted to CPU
system.realview.ethernet.coalescedRxDesc          nan                       # average number of RxDesc's coalesced into each post
system.realview.ethernet.totalRxDesc                0                       # total number of RxDesc written to ISR
system.realview.ethernet.postedTxOk                 0                       # number of TxOk interrupts posted to CPU
system.realview.ethernet.coalescedTxOk            nan                       # average number of TxOk's coalesced into each post
system.realview.ethernet.totalTxOk                  0                       # total number of TxOk written to ISR
system.realview.ethernet.postedTxIdle               0                       # number of TxIdle interrupts posted to CPU
system.realview.ethernet.coalescedTxIdle          nan                       # average number of TxIdle's coalesced into each post
system.realview.ethernet.totalTxIdle                0                       # total number of TxIdle written to ISR
system.realview.ethernet.postedTxDesc               0                       # number of TxDesc interrupts posted to CPU
system.realview.ethernet.coalescedTxDesc          nan                       # average number of TxDesc's coalesced into each post
system.realview.ethernet.totalTxDesc                0                       # total number of TxDesc written to ISR
system.realview.ethernet.postedRxOrn                0                       # number of RxOrn posted to CPU
system.realview.ethernet.coalescedRxOrn           nan                       # average number of RxOrn's coalesced into each post
system.realview.ethernet.totalRxOrn                 0                       # total number of RxOrn written to ISR
system.realview.ethernet.coalescedTotal           nan                       # average number of interrupts coalesced into each post
system.realview.ethernet.postedInterrupts            0                       # number of posts to CPU
system.realview.ethernet.droppedPackets             0                       # number of packets dropped
system.realview.realview_io.osc_pxl.clock        42105                       # Clock period in ticks
system.realview.realview_io.osc_clcd.clock        42105                       # Clock period in ticks
system.realview.realview_io.osc_cpu.clock        16667                       # Clock period in ticks
system.realview.realview_io.osc_ddr.clock        25000                       # Clock period in ticks
system.realview.realview_io.osc_hsbm.clock        25000                       # Clock period in ticks
system.realview.realview_io.osc_mcc.clock        20000                       # Clock period in ticks
system.realview.realview_io.osc_peripheral.clock        41667                       # Clock period in ticks
system.realview.realview_io.osc_smb.clock        20000                       # Clock period in ticks
system.realview.realview_io.osc_sys.clock        16667                       # Clock period in ticks
system.realview.realview_io.osc_system_bus.clock        41667                       # Clock period in ticks

---------- End Simulation Statistics   ----------
