
---------- Begin Simulation Statistics ----------
sim_seconds                                  2.852832                       # Number of seconds simulated
sim_ticks                                2852831758500                       # Number of ticks simulated
final_tick                               2852831758500                       # Number of ticks from beginning of simulation (restored from checkpoints and never reset)
sim_freq                                 1000000000000                       # Frequency of simulated ticks
host_inst_rate                                 111123                       # Simulator instruction rate (inst/s)
host_op_rate                                   134357                       # Simulator op (including micro ops) rate (op/s)
host_tick_rate                             2834419538                       # Simulator tick rate (ticks/s)
host_mem_usage                                 554504                       # Number of bytes of host memory used
host_seconds                                  1006.50                       # Real time elapsed on the host
sim_insts                                   111845135                       # Number of instructions simulated
sim_ops                                     135229426                       # Number of ops (including micro ops) simulated
system.voltage_domain.voltage                       1                       # Voltage in Volts
system.clk_domain.clock                          1000                       # Clock period in ticks
system.physmem.bytes_read::cpu.dtb.walker         7744                       # Number of bytes read from this memory
system.physmem.bytes_read::cpu.itb.walker           64                       # Number of bytes read from this memory
system.physmem.bytes_read::cpu.inst           1669888                       # Number of bytes read from this memory
system.physmem.bytes_read::cpu.data           9170532                       # Number of bytes read from this memory
system.physmem.bytes_read::realview.ide           960                       # Number of bytes read from this memory
system.physmem.bytes_read::total             10849188                       # Number of bytes read from this memory
system.physmem.bytes_inst_read::cpu.inst      1669888                       # Number of instructions bytes read from this memory
system.physmem.bytes_inst_read::total         1669888                       # Number of instructions bytes read from this memory
system.physmem.bytes_written::writebacks      7971008                       # Number of bytes written to this memory
system.physmem.bytes_written::cpu.data          17524                       # Number of bytes written to this memory
system.physmem.bytes_written::total           7988532                       # Number of bytes written to this memory
system.physmem.num_reads::cpu.dtb.walker          121                       # Number of read requests responded to by this memory
system.physmem.num_reads::cpu.itb.walker            1                       # Number of read requests responded to by this memory
system.physmem.num_reads::cpu.inst              26092                       # Number of read requests responded to by this memory
system.physmem.num_reads::cpu.data             143809                       # Number of read requests responded to by this memory
system.physmem.num_reads::realview.ide             15                       # Number of read requests responded to by this memory
system.physmem.num_reads::total                170038                       # Number of read requests responded to by this memory
system.physmem.num_writes::writebacks          124547                       # Number of write requests responded to by this memory
system.physmem.num_writes::cpu.data              4381                       # Number of write requests responded to by this memory
system.physmem.num_writes::total               128928                       # Number of write requests responded to by this memory
system.physmem.bw_read::cpu.dtb.walker           2714                       # Total read bandwidth from this memory (bytes/s)
system.physmem.bw_read::cpu.itb.walker             22                       # Total read bandwidth from this memory (bytes/s)
system.physmem.bw_read::cpu.inst               585344                       # Total read bandwidth from this memory (bytes/s)
system.physmem.bw_read::cpu.data              3214537                       # Total read bandwidth from this memory (bytes/s)
system.physmem.bw_read::realview.ide              337                       # Total read bandwidth from this memory (bytes/s)
system.physmem.bw_read::total                 3802954                       # Total read bandwidth from this memory (bytes/s)
system.physmem.bw_inst_read::cpu.inst          585344                       # Instruction read bandwidth from this memory (bytes/s)
system.physmem.bw_inst_read::total             585344                       # Instruction read bandwidth from this memory (bytes/s)
system.physmem.bw_write::writebacks           2794069                       # Write bandwidth from this memory (bytes/s)
system.physmem.bw_write::cpu.data                6143                       # Write bandwidth from this memory (bytes/s)
system.physmem.bw_write::total                2800211                       # Write bandwidth from this memory (bytes/s)
system.physmem.bw_total::writebacks           2794069                       # Total bandwidth to/from this memory (bytes/s)
system.physmem.bw_total::cpu.dtb.walker          2714                       # Total bandwidth to/from this memory (bytes/s)
system.physmem.bw_total::cpu.itb.walker            22                       # Total bandwidth to/from this memory (bytes/s)
system.physmem.bw_total::cpu.inst              585344                       # Total bandwidth to/from this memory (bytes/s)
system.physmem.bw_total::cpu.data             3220679                       # Total bandwidth to/from this memory (bytes/s)
system.physmem.bw_total::realview.ide             337                       # Total bandwidth to/from this memory (bytes/s)
system.physmem.bw_total::total                6603165                       # Total bandwidth to/from this memory (bytes/s)
system.physmem.readReqs                        170038                       # Number of read requests accepted
system.physmem.writeReqs                       165152                       # Number of write requests accepted
system.physmem.readBursts                      170038                       # Number of DRAM read bursts, including those serviced by the write queue
system.physmem.writeBursts                     165152                       # Number of DRAM write bursts, including those merged in the write queue
system.physmem.bytesReadDRAM                 10876672                       # Total number of bytes read from DRAM
system.physmem.bytesReadWrQ                      5760                       # Total number of bytes read from write queue
system.physmem.bytesWritten                   9051328                       # Total number of bytes written to DRAM
system.physmem.bytesReadSys                  10849188                       # Total read bytes from the system interface side
system.physmem.bytesWrittenSys               10306868                       # Total written bytes from the system interface side
system.physmem.servicedByWrQ                       90                       # Number of DRAM read bursts serviced by the write queue
system.physmem.mergedWrBursts                   23701                       # Number of DRAM write bursts merged with an existing one
system.physmem.neitherReadNorWriteReqs           4591                       # Number of requests that are neither read nor write
system.physmem.perBankRdBursts::0               10711                       # Per bank write bursts
system.physmem.perBankRdBursts::1               10418                       # Per bank write bursts
system.physmem.perBankRdBursts::2               10743                       # Per bank write bursts
system.physmem.perBankRdBursts::3               10617                       # Per bank write bursts
system.physmem.perBankRdBursts::4               13557                       # Per bank write bursts
system.physmem.perBankRdBursts::5               10851                       # Per bank write bursts
system.physmem.perBankRdBursts::6               10986                       # Per bank write bursts
system.physmem.perBankRdBursts::7               10951                       # Per bank write bursts
system.physmem.perBankRdBursts::8               10335                       # Per bank write bursts
system.physmem.perBankRdBursts::9               10516                       # Per bank write bursts
system.physmem.perBankRdBursts::10              10068                       # Per bank write bursts
system.physmem.perBankRdBursts::11               9192                       # Per bank write bursts
system.physmem.perBankRdBursts::12              10325                       # Per bank write bursts
system.physmem.perBankRdBursts::13              10893                       # Per bank write bursts
system.physmem.perBankRdBursts::14               9864                       # Per bank write bursts
system.physmem.perBankRdBursts::15               9921                       # Per bank write bursts
system.physmem.perBankWrBursts::0                8907                       # Per bank write bursts
system.physmem.perBankWrBursts::1                8809                       # Per bank write bursts
system.physmem.perBankWrBursts::2                9307                       # Per bank write bursts
system.physmem.perBankWrBursts::3                9147                       # Per bank write bursts
system.physmem.perBankWrBursts::4                8787                       # Per bank write bursts
system.physmem.perBankWrBursts::5                9076                       # Per bank write bursts
system.physmem.perBankWrBursts::6                9209                       # Per bank write bursts
system.physmem.perBankWrBursts::7                9123                       # Per bank write bursts
system.physmem.perBankWrBursts::8                9054                       # Per bank write bursts
system.physmem.perBankWrBursts::9                9064                       # Per bank write bursts
system.physmem.perBankWrBursts::10               8553                       # Per bank write bursts
system.physmem.perBankWrBursts::11               8266                       # Per bank write bursts
system.physmem.perBankWrBursts::12               8846                       # Per bank write bursts
system.physmem.perBankWrBursts::13               9045                       # Per bank write bursts
system.physmem.perBankWrBursts::14               8063                       # Per bank write bursts
system.physmem.perBankWrBursts::15               8171                       # Per bank write bursts
system.physmem.numRdRetry                           0                       # Number of times read queue was full causing retry
system.physmem.numWrRetry                          51                       # Number of times write queue was full causing retry
system.physmem.totGap                    2852831352500                       # Total gap between requests
system.physmem.readPktSize::0                       0                       # Read request sizes (log2)
system.physmem.readPktSize::1                       0                       # Read request sizes (log2)
system.physmem.readPktSize::2                     541                       # Read request sizes (log2)
system.physmem.readPktSize::3                      14                       # Read request sizes (log2)
system.physmem.readPktSize::4                       0                       # Read request sizes (log2)
system.physmem.readPktSize::5                       0                       # Read request sizes (log2)
system.physmem.readPktSize::6                  169483                       # Read request sizes (log2)
system.physmem.writePktSize::0                      0                       # Write request sizes (log2)
system.physmem.writePktSize::1                      0                       # Write request sizes (log2)
system.physmem.writePktSize::2                   4381                       # Write request sizes (log2)
system.physmem.writePktSize::3                      0                       # Write request sizes (log2)
system.physmem.writePktSize::4                      0                       # Write request sizes (log2)
system.physmem.writePktSize::5                      0                       # Write request sizes (log2)
system.physmem.writePktSize::6                 160771                       # Write request sizes (log2)
system.physmem.rdQLenPdf::0                    163196                       # What read queue length does an incoming req see
system.physmem.rdQLenPdf::1                      6460                       # What read queue length does an incoming req see
system.physmem.rdQLenPdf::2                       280                       # What read queue length does an incoming req see
system.physmem.rdQLenPdf::3                         1                       # What read queue length does an incoming req see
system.physmem.rdQLenPdf::4                         1                       # What read queue length does an incoming req see
system.physmem.rdQLenPdf::5                         1                       # What read queue length does an incoming req see
system.physmem.rdQLenPdf::6                         1                       # What read queue length does an incoming req see
system.physmem.rdQLenPdf::7                         1                       # What read queue length does an incoming req see
system.physmem.rdQLenPdf::8                         1                       # What read queue length does an incoming req see
system.physmem.rdQLenPdf::9                         1                       # What read queue length does an incoming req see
system.physmem.rdQLenPdf::10                        1                       # What read queue length does an incoming req see
system.physmem.rdQLenPdf::11                        1                       # What read queue length does an incoming req see
system.physmem.rdQLenPdf::12                        1                       # What read queue length does an incoming req see
system.physmem.rdQLenPdf::13                        1                       # What read queue length does an incoming req see
system.physmem.rdQLenPdf::14                        1                       # What read queue length does an incoming req see
system.physmem.rdQLenPdf::15                        0                       # What read queue length does an incoming req see
system.physmem.rdQLenPdf::16                        0                       # What read queue length does an incoming req see
system.physmem.rdQLenPdf::17                        0                       # What read queue length does an incoming req see
system.physmem.rdQLenPdf::18                        0                       # What read queue length does an incoming req see
system.physmem.rdQLenPdf::19                        0                       # What read queue length does an incoming req see
system.physmem.rdQLenPdf::20                        0                       # What read queue length does an incoming req see
system.physmem.rdQLenPdf::21                        0                       # What read queue length does an incoming req see
system.physmem.rdQLenPdf::22                        0                       # What read queue length does an incoming req see
system.physmem.rdQLenPdf::23                        0                       # What read queue length does an incoming req see
system.physmem.rdQLenPdf::24                        0                       # What read queue length does an incoming req see
system.physmem.rdQLenPdf::25                        0                       # What read queue length does an incoming req see
system.physmem.rdQLenPdf::26                        0                       # What read queue length does an incoming req see
system.physmem.rdQLenPdf::27                        0                       # What read queue length does an incoming req see
system.physmem.rdQLenPdf::28                        0                       # What read queue length does an incoming req see
system.physmem.rdQLenPdf::29                        0                       # What read queue length does an incoming req see
system.physmem.rdQLenPdf::30                        0                       # What read queue length does an incoming req see
system.physmem.rdQLenPdf::31                        0                       # What read queue length does an incoming req see
system.physmem.wrQLenPdf::0                         1                       # What write queue length does an incoming req see
system.physmem.wrQLenPdf::1                         1                       # What write queue length does an incoming req see
system.physmem.wrQLenPdf::2                         1                       # What write queue length does an incoming req see
system.physmem.wrQLenPdf::3                         1                       # What write queue length does an incoming req see
system.physmem.wrQLenPdf::4                         1                       # What write queue length does an incoming req see
system.physmem.wrQLenPdf::5                         1                       # What write queue length does an incoming req see
system.physmem.wrQLenPdf::6                         1                       # What write queue length does an incoming req see
system.physmem.wrQLenPdf::7                         1                       # What write queue length does an incoming req see
system.physmem.wrQLenPdf::8                         1                       # What write queue length does an incoming req see
system.physmem.wrQLenPdf::9                         1                       # What write queue length does an incoming req see
system.physmem.wrQLenPdf::10                        1                       # What write queue length does an incoming req see
system.physmem.wrQLenPdf::11                        1                       # What write queue length does an incoming req see
system.physmem.wrQLenPdf::12                        1                       # What write queue length does an incoming req see
system.physmem.wrQLenPdf::13                        1                       # What write queue length does an incoming req see
system.physmem.wrQLenPdf::14                        1                       # What write queue length does an incoming req see
system.physmem.wrQLenPdf::15                     1486                       # What write queue length does an incoming req see
system.physmem.wrQLenPdf::16                     1656                       # What write queue length does an incoming req see
system.physmem.wrQLenPdf::17                     5410                       # What write queue length does an incoming req see
system.physmem.wrQLenPdf::18                     5965                       # What write queue length does an incoming req see
system.physmem.wrQLenPdf::19                     6177                       # What write queue length does an incoming req see
system.physmem.wrQLenPdf::20                     5982                       # What write queue length does an incoming req see
system.physmem.wrQLenPdf::21                     6172                       # What write queue length does an incoming req see
system.physmem.wrQLenPdf::22                     6639                       # What write queue length does an incoming req see
system.physmem.wrQLenPdf::23                     7573                       # What write queue length does an incoming req see
system.physmem.wrQLenPdf::24                     6474                       # What write queue length does an incoming req see
system.physmem.wrQLenPdf::25                     6716                       # What write queue length does an incoming req see
system.physmem.wrQLenPdf::26                     8051                       # What write queue length does an incoming req see
system.physmem.wrQLenPdf::27                     6751                       # What write queue length does an incoming req see
system.physmem.wrQLenPdf::28                     6513                       # What write queue length does an incoming req see
system.physmem.wrQLenPdf::29                     8515                       # What write queue length does an incoming req see
system.physmem.wrQLenPdf::30                     7300                       # What write queue length does an incoming req see
system.physmem.wrQLenPdf::31                     6993                       # What write queue length does an incoming req see
system.physmem.wrQLenPdf::32                     6732                       # What write queue length does an incoming req see
system.physmem.wrQLenPdf::33                     1421                       # What write queue length does an incoming req see
system.physmem.wrQLenPdf::34                     1060                       # What write queue length does an incoming req see
system.physmem.wrQLenPdf::35                     1325                       # What write queue length does an incoming req see
system.physmem.wrQLenPdf::36                     2414                       # What write queue length does an incoming req see
system.physmem.wrQLenPdf::37                     2262                       # What write queue length does an incoming req see
system.physmem.wrQLenPdf::38                     1874                       # What write queue length does an incoming req see
system.physmem.wrQLenPdf::39                     1812                       # What write queue length does an incoming req see
system.physmem.wrQLenPdf::40                     2371                       # What write queue length does an incoming req see
system.physmem.wrQLenPdf::41                     1817                       # What write queue length does an incoming req see
system.physmem.wrQLenPdf::42                     1970                       # What write queue length does an incoming req see
system.physmem.wrQLenPdf::43                     1688                       # What write queue length does an incoming req see
system.physmem.wrQLenPdf::44                     1902                       # What write queue length does an incoming req see
system.physmem.wrQLenPdf::45                     1644                       # What write queue length does an incoming req see
system.physmem.wrQLenPdf::46                     1359                       # What write queue length does an incoming req see
system.physmem.wrQLenPdf::47                     1311                       # What write queue length does an incoming req see
system.physmem.wrQLenPdf::48                     1040                       # What write queue length does an incoming req see
system.physmem.wrQLenPdf::49                      618                       # What write queue length does an incoming req see
system.physmem.wrQLenPdf::50                      389                       # What write queue length does an incoming req see
system.physmem.wrQLenPdf::51                      373                       # What write queue length does an incoming req see
system.physmem.wrQLenPdf::52                      299                       # What write queue length does an incoming req see
system.physmem.wrQLenPdf::53                      175                       # What write queue length does an incoming req see
system.physmem.wrQLenPdf::54                      135                       # What write queue length does an incoming req see
system.physmem.wrQLenPdf::55                      113                       # What write queue length does an incoming req see
system.physmem.wrQLenPdf::56                      153                       # What write queue length does an incoming req see
system.physmem.wrQLenPdf::57                      139                       # What write queue length does an incoming req see
system.physmem.wrQLenPdf::58                      140                       # What write queue length does an incoming req see
system.physmem.wrQLenPdf::59                      107                       # What write queue length does an incoming req see
system.physmem.wrQLenPdf::60                       88                       # What write queue length does an incoming req see
system.physmem.wrQLenPdf::61                      113                       # What write queue length does an incoming req see
system.physmem.wrQLenPdf::62                       62                       # What write queue length does an incoming req see
system.physmem.wrQLenPdf::63                      157                       # What write queue length does an incoming req see
system.physmem.bytesPerActivate::samples        61712                       # Bytes accessed per row activation
system.physmem.bytesPerActivate::mean      322.918330                       # Bytes accessed per row activation
system.physmem.bytesPerActivate::gmean     189.336942                       # Bytes accessed per row activation
system.physmem.bytesPerActivate::stdev     338.461853                       # Bytes accessed per row activation
system.physmem.bytesPerActivate::0-127          22238     36.04%     36.04% # Bytes accessed per row activation
system.physmem.bytesPerActivate::128-255        14509     23.51%     59.55% # Bytes accessed per row activation
system.physmem.bytesPerActivate::256-383         6552     10.62%     70.16% # Bytes accessed per row activation
system.physmem.bytesPerActivate::384-511         3615      5.86%     76.02% # Bytes accessed per row activation
system.physmem.bytesPerActivate::512-639         2651      4.30%     80.32% # Bytes accessed per row activation
system.physmem.bytesPerActivate::640-767         1538      2.49%     82.81% # Bytes accessed per row activation
system.physmem.bytesPerActivate::768-895         1136      1.84%     84.65% # Bytes accessed per row activation
system.physmem.bytesPerActivate::896-1023         1152      1.87%     86.52% # Bytes accessed per row activation
system.physmem.bytesPerActivate::1024-1151         8321     13.48%    100.00% # Bytes accessed per row activation
system.physmem.bytesPerActivate::total          61712                       # Bytes accessed per row activation
system.physmem.rdPerTurnAround::samples          5883                       # Reads before turning the bus around for writes
system.physmem.rdPerTurnAround::mean        28.886962                       # Reads before turning the bus around for writes
system.physmem.rdPerTurnAround::stdev      584.019916                       # Reads before turning the bus around for writes
system.physmem.rdPerTurnAround::0-2047           5882     99.98%     99.98% # Reads before turning the bus around for writes
system.physmem.rdPerTurnAround::43008-45055            1      0.02%    100.00% # Reads before turning the bus around for writes
system.physmem.rdPerTurnAround::total            5883                       # Reads before turning the bus around for writes
system.physmem.wrPerTurnAround::samples          5883                       # Writes before turning the bus around for reads
system.physmem.wrPerTurnAround::mean        24.039946                       # Writes before turning the bus around for reads
system.physmem.wrPerTurnAround::gmean       18.374321                       # Writes before turning the bus around for reads
system.physmem.wrPerTurnAround::stdev       43.145306                       # Writes before turning the bus around for reads
system.physmem.wrPerTurnAround::16-31            5549     94.32%     94.32% # Writes before turning the bus around for reads
system.physmem.wrPerTurnAround::32-47              83      1.41%     95.73% # Writes before turning the bus around for reads
system.physmem.wrPerTurnAround::48-63              21      0.36%     96.09% # Writes before turning the bus around for reads
system.physmem.wrPerTurnAround::64-79              19      0.32%     96.41% # Writes before turning the bus around for reads
system.physmem.wrPerTurnAround::80-95              30      0.51%     96.92% # Writes before turning the bus around for reads
system.physmem.wrPerTurnAround::96-111             24      0.41%     97.33% # Writes before turning the bus around for reads
system.physmem.wrPerTurnAround::112-127            22      0.37%     97.71% # Writes before turning the bus around for reads
system.physmem.wrPerTurnAround::128-143            15      0.25%     97.96% # Writes before turning the bus around for reads
system.physmem.wrPerTurnAround::144-159            11      0.19%     98.15% # Writes before turning the bus around for reads
system.physmem.wrPerTurnAround::160-175             3      0.05%     98.20% # Writes before turning the bus around for reads
system.physmem.wrPerTurnAround::176-191            21      0.36%     98.56% # Writes before turning the bus around for reads
system.physmem.wrPerTurnAround::192-207            13      0.22%     98.78% # Writes before turning the bus around for reads
system.physmem.wrPerTurnAround::208-223             9      0.15%     98.93% # Writes before turning the bus around for reads
system.physmem.wrPerTurnAround::224-239             6      0.10%     99.03% # Writes before turning the bus around for reads
system.physmem.wrPerTurnAround::240-255             2      0.03%     99.07% # Writes before turning the bus around for reads
system.physmem.wrPerTurnAround::256-271             2      0.03%     99.10% # Writes before turning the bus around for reads
system.physmem.wrPerTurnAround::272-287             4      0.07%     99.17% # Writes before turning the bus around for reads
system.physmem.wrPerTurnAround::288-303             7      0.12%     99.29% # Writes before turning the bus around for reads
system.physmem.wrPerTurnAround::304-319             3      0.05%     99.34% # Writes before turning the bus around for reads
system.physmem.wrPerTurnAround::320-335             2      0.03%     99.37% # Writes before turning the bus around for reads
system.physmem.wrPerTurnAround::336-351             6      0.10%     99.47% # Writes before turning the bus around for reads
system.physmem.wrPerTurnAround::352-367             9      0.15%     99.63% # Writes before turning the bus around for reads
system.physmem.wrPerTurnAround::368-383             2      0.03%     99.66% # Writes before turning the bus around for reads
system.physmem.wrPerTurnAround::400-415             3      0.05%     99.71% # Writes before turning the bus around for reads
system.physmem.wrPerTurnAround::464-479             2      0.03%     99.75% # Writes before turning the bus around for reads
system.physmem.wrPerTurnAround::496-511             2      0.03%     99.78% # Writes before turning the bus around for reads
system.physmem.wrPerTurnAround::512-527             1      0.02%     99.80% # Writes before turning the bus around for reads
system.physmem.wrPerTurnAround::528-543             5      0.08%     99.88% # Writes before turning the bus around for reads
system.physmem.wrPerTurnAround::544-559             2      0.03%     99.92% # Writes before turning the bus around for reads
system.physmem.wrPerTurnAround::560-575             5      0.08%    100.00% # Writes before turning the bus around for reads
system.physmem.wrPerTurnAround::total            5883                       # Writes before turning the bus around for reads
system.physmem.totQLat                     1723441444                       # Total ticks spent queuing
system.physmem.totMemAccLat                4909966444                       # Total ticks spent from burst creation until serviced by the DRAM
system.physmem.totBusLat                    849740000                       # Total ticks spent in databus transfers
system.physmem.avgQLat                       10140.99                       # Average queueing delay per DRAM burst
system.physmem.avgBusLat                      5000.00                       # Average bus latency per DRAM burst
system.physmem.avgMemAccLat                  28890.99                       # Average memory access latency per DRAM burst
system.physmem.avgRdBW                           3.81                       # Average DRAM read bandwidth in MiByte/s
system.physmem.avgWrBW                           3.17                       # Average achieved write bandwidth in MiByte/s
system.physmem.avgRdBWSys                        3.80                       # Average system read bandwidth in MiByte/s
system.physmem.avgWrBWSys                        3.61                       # Average system write bandwidth in MiByte/s
system.physmem.peakBW                        12800.00                       # Theoretical peak bandwidth in MiByte/s
system.physmem.busUtil                           0.05                       # Data bus utilization in percentage
system.physmem.busUtilRead                       0.03                       # Data bus utilization in percentage for reads
system.physmem.busUtilWrite                      0.02                       # Data bus utilization in percentage for writes
system.physmem.avgRdQLen                         1.00                       # Average read queue length when enqueuing
system.physmem.avgWrQLen                        27.38                       # Average write queue length when enqueuing
system.physmem.readRowHits                     140236                       # Number of row buffer hits during reads
system.physmem.writeRowHits                    109426                       # Number of row buffer hits during writes
system.physmem.readRowHitRate                   82.52                       # Row buffer hit rate for reads
system.physmem.writeRowHitRate                  77.36                       # Row buffer hit rate for writes
system.physmem.avgGap                      8511087.30                       # Average gap between requests
system.physmem.pageHitRate                      80.17                       # Row buffer hit rate, read and write combined
system.physmem_0.actEnergy                  243129600                       # Energy for activate commands per rank (pJ)
system.physmem_0.preEnergy                  132660000                       # Energy for precharge commands per rank (pJ)
system.physmem_0.readEnergy                 692905200                       # Energy for read commands per rank (pJ)
system.physmem_0.writeEnergy                468925200                       # Energy for write commands per rank (pJ)
system.physmem_0.refreshEnergy           186332824080                       # Energy for refresh commands per rank (pJ)
system.physmem_0.actBackEnergy            83554754445                       # Energy for active background per rank (pJ)
system.physmem_0.preBackEnergy           1638403001250                       # Energy for precharge background per rank (pJ)
system.physmem_0.totalEnergy             1909828199775                       # Total energy per rank (pJ)
system.physmem_0.averagePower              669.450935                       # Core power per rank (mW)
system.physmem_0.memoryStateTime::IDLE   2725489926444                       # Time in different power states
system.physmem_0.memoryStateTime::REF     95262180000                       # Time in different power states
system.physmem_0.memoryStateTime::PRE_PDN            0                       # Time in different power states
system.physmem_0.memoryStateTime::ACT     32075649806                       # Time in different power states
system.physmem_0.memoryStateTime::ACT_PDN            0                       # Time in different power states
system.physmem_1.actEnergy                  223413120                       # Energy for activate commands per rank (pJ)
system.physmem_1.preEnergy                  121902000                       # Energy for precharge commands per rank (pJ)
system.physmem_1.readEnergy                 632681400                       # Energy for read commands per rank (pJ)
system.physmem_1.writeEnergy                447521760                       # Energy for write commands per rank (pJ)
system.physmem_1.refreshEnergy           186332824080                       # Energy for refresh commands per rank (pJ)
system.physmem_1.actBackEnergy            82328316795                       # Energy for active background per rank (pJ)
system.physmem_1.preBackEnergy           1639478823750                       # Energy for precharge background per rank (pJ)
system.physmem_1.totalEnergy             1909565482905                       # Total energy per rank (pJ)
system.physmem_1.averagePower              669.358845                       # Core power per rank (mW)
system.physmem_1.memoryStateTime::IDLE   2727297379194                       # Time in different power states
system.physmem_1.memoryStateTime::REF     95262180000                       # Time in different power states
system.physmem_1.memoryStateTime::PRE_PDN            0                       # Time in different power states
system.physmem_1.memoryStateTime::ACT     30272102306                       # Time in different power states
system.physmem_1.memoryStateTime::ACT_PDN            0                       # Time in different power states
system.realview.nvmem.bytes_read::cpu.inst          448                       # Number of bytes read from this memory
system.realview.nvmem.bytes_read::total           448                       # Number of bytes read from this memory
system.realview.nvmem.bytes_inst_read::cpu.inst          448                       # Number of instructions bytes read from this memory
system.realview.nvmem.bytes_inst_read::total          448                       # Number of instructions bytes read from this memory
system.realview.nvmem.num_reads::cpu.inst            7                       # Number of read requests responded to by this memory
system.realview.nvmem.num_reads::total              7                       # Number of read requests responded to by this memory
system.realview.nvmem.bw_read::cpu.inst           157                       # Total read bandwidth from this memory (bytes/s)
system.realview.nvmem.bw_read::total              157                       # Total read bandwidth from this memory (bytes/s)
system.realview.nvmem.bw_inst_read::cpu.inst          157                       # Instruction read bandwidth from this memory (bytes/s)
system.realview.nvmem.bw_inst_read::total          157                       # Instruction read bandwidth from this memory (bytes/s)
system.realview.nvmem.bw_total::cpu.inst          157                       # Total bandwidth to/from this memory (bytes/s)
system.realview.nvmem.bw_total::total             157                       # Total bandwidth to/from this memory (bytes/s)
system.cf0.dma_read_full_pages                      0                       # Number of full page size DMA reads (not PRD).
system.cf0.dma_read_bytes                        1024                       # Number of bytes transfered via DMA reads (not PRD).
system.cf0.dma_read_txs                             1                       # Number of DMA read transactions (not PRD).
system.cf0.dma_write_full_pages                   540                       # Number of full page size DMA writes.
system.cf0.dma_write_bytes                    2318336                       # Number of bytes transfered via DMA writes.
system.cf0.dma_write_txs                          631                       # Number of DMA write transactions.
system.cpu.branchPred.lookups                31016169                       # Number of BP lookups
system.cpu.branchPred.condPredicted          16821620                       # Number of conditional branches predicted
system.cpu.branchPred.condIncorrect           2509164                       # Number of conditional branches incorrect
system.cpu.branchPred.BTBLookups             18454178                       # Number of BTB lookups
system.cpu.branchPred.BTBHits                13299317                       # Number of BTB hits
system.cpu.branchPred.BTBCorrect                    0                       # Number of correct BTB predictions (this stat may not work properly.
system.cpu.branchPred.BTBHitPct             72.066699                       # BTB Hit Percentage
system.cpu.branchPred.usedRAS                 7885459                       # Number of times the RAS was used to get a target.
system.cpu.branchPred.RASInCorrect            1501288                       # Number of incorrect RAS predictions.
system.cpu_clk_domain.clock                       500                       # Clock period in ticks
system.cpu.dstage2_mmu.stage2_tlb.walker.walks            0                       # Table walker walks requested
system.cpu.dstage2_mmu.stage2_tlb.walker.walkRequestOrigin_Requested::Data            0                       # Table walker requests started/completed, data/inst
system.cpu.dstage2_mmu.stage2_tlb.walker.walkRequestOrigin_Requested::Inst            0                       # Table walker requests started/completed, data/inst
system.cpu.dstage2_mmu.stage2_tlb.walker.walkRequestOrigin_Requested::total            0                       # Table walker requests started/completed, data/inst
system.cpu.dstage2_mmu.stage2_tlb.walker.walkRequestOrigin_Completed::Data            0                       # Table walker requests started/completed, data/inst
system.cpu.dstage2_mmu.stage2_tlb.walker.walkRequestOrigin_Completed::Inst            0                       # Table walker requests started/completed, data/inst
system.cpu.dstage2_mmu.stage2_tlb.walker.walkRequestOrigin_Completed::total            0                       # Table walker requests started/completed, data/inst
system.cpu.dstage2_mmu.stage2_tlb.walker.walkRequestOrigin::total            0                       # Table walker requests started/completed, data/inst
system.cpu.dstage2_mmu.stage2_tlb.inst_hits            0                       # ITB inst hits
system.cpu.dstage2_mmu.stage2_tlb.inst_misses            0                       # ITB inst misses
system.cpu.dstage2_mmu.stage2_tlb.read_hits            0                       # DTB read hits
system.cpu.dstage2_mmu.stage2_tlb.read_misses            0                       # DTB read misses
system.cpu.dstage2_mmu.stage2_tlb.write_hits            0                       # DTB write hits
system.cpu.dstage2_mmu.stage2_tlb.write_misses            0                       # DTB write misses
system.cpu.dstage2_mmu.stage2_tlb.flush_tlb            0                       # Number of times complete TLB was flushed
system.cpu.dstage2_mmu.stage2_tlb.flush_tlb_mva            0                       # Number of times TLB was flushed by MVA
system.cpu.dstage2_mmu.stage2_tlb.flush_tlb_mva_asid            0                       # Number of times TLB was flushed by MVA & ASID
system.cpu.dstage2_mmu.stage2_tlb.flush_tlb_asid            0                       # Number of times TLB was flushed by ASID
system.cpu.dstage2_mmu.stage2_tlb.flush_entries            0                       # Number of entries that have been flushed from TLB
system.cpu.dstage2_mmu.stage2_tlb.align_faults            0                       # Number of TLB faults due to alignment restrictions
system.cpu.dstage2_mmu.stage2_tlb.prefetch_faults            0                       # Number of TLB faults due to prefetch
system.cpu.dstage2_mmu.stage2_tlb.domain_faults            0                       # Number of TLB faults due to domain restrictions
system.cpu.dstage2_mmu.stage2_tlb.perms_faults            0                       # Number of TLB faults due to permissions restrictions
system.cpu.dstage2_mmu.stage2_tlb.read_accesses            0                       # DTB read accesses
system.cpu.dstage2_mmu.stage2_tlb.write_accesses            0                       # DTB write accesses
system.cpu.dstage2_mmu.stage2_tlb.inst_accesses            0                       # ITB inst accesses
system.cpu.dstage2_mmu.stage2_tlb.hits              0                       # DTB hits
system.cpu.dstage2_mmu.stage2_tlb.misses            0                       # DTB misses
system.cpu.dstage2_mmu.stage2_tlb.accesses            0                       # DTB accesses
system.cpu.dtb.walker.walks                     66365                       # Table walker walks requested
system.cpu.dtb.walker.walksShort                66365                       # Table walker walks initiated with short descriptors
system.cpu.dtb.walker.walksShortTerminationLevel::Level1        43579                       # Level at which table walker walks with short descriptors terminate
system.cpu.dtb.walker.walksShortTerminationLevel::Level2        22786                       # Level at which table walker walks with short descriptors terminate
system.cpu.dtb.walker.walkWaitTime::samples        66365                       # Table walker wait (enqueue to first request) latency
system.cpu.dtb.walker.walkWaitTime::0           66365    100.00%    100.00% # Table walker wait (enqueue to first request) latency
system.cpu.dtb.walker.walkWaitTime::total        66365                       # Table walker wait (enqueue to first request) latency
system.cpu.dtb.walker.walkCompletionTime::samples         7796                       # Table walker service (enqueue to completion) latency
system.cpu.dtb.walker.walkCompletionTime::mean 11013.949461                       # Table walker service (enqueue to completion) latency
system.cpu.dtb.walker.walkCompletionTime::gmean  8730.002722                       # Table walker service (enqueue to completion) latency
system.cpu.dtb.walker.walkCompletionTime::stdev  7624.437396                       # Table walker service (enqueue to completion) latency
system.cpu.dtb.walker.walkCompletionTime::0-16383         6093     78.16%     78.16% # Table walker service (enqueue to completion) latency
system.cpu.dtb.walker.walkCompletionTime::16384-32767         1696     21.75%     99.91% # Table walker service (enqueue to completion) latency
system.cpu.dtb.walker.walkCompletionTime::32768-49151            1      0.01%     99.92% # Table walker service (enqueue to completion) latency
system.cpu.dtb.walker.walkCompletionTime::81920-98303            4      0.05%     99.97% # Table walker service (enqueue to completion) latency
system.cpu.dtb.walker.walkCompletionTime::98304-114687            1      0.01%     99.99% # Table walker service (enqueue to completion) latency
system.cpu.dtb.walker.walkCompletionTime::229376-245759            1      0.01%    100.00% # Table walker service (enqueue to completion) latency
system.cpu.dtb.walker.walkCompletionTime::total         7796                       # Table walker service (enqueue to completion) latency
system.cpu.dtb.walker.walksPending::samples    262515000                       # Table walker pending requests distribution
system.cpu.dtb.walker.walksPending::0       262515000    100.00%    100.00% # Table walker pending requests distribution
system.cpu.dtb.walker.walksPending::total    262515000                       # Table walker pending requests distribution
system.cpu.dtb.walker.walkPageSizes::4K          6406     82.17%     82.17% # Table walker page sizes translated
system.cpu.dtb.walker.walkPageSizes::1M          1390     17.83%    100.00% # Table walker page sizes translated
system.cpu.dtb.walker.walkPageSizes::total         7796                       # Table walker page sizes translated
system.cpu.dtb.walker.walkRequestOrigin_Requested::Data        66365                       # Table walker requests started/completed, data/inst
system.cpu.dtb.walker.walkRequestOrigin_Requested::Inst            0                       # Table walker requests started/completed, data/inst
system.cpu.dtb.walker.walkRequestOrigin_Requested::total        66365                       # Table walker requests started/completed, data/inst
system.cpu.dtb.walker.walkRequestOrigin_Completed::Data         7796                       # Table walker requests started/completed, data/inst
system.cpu.dtb.walker.walkRequestOrigin_Completed::Inst            0                       # Table walker requests started/completed, data/inst
system.cpu.dtb.walker.walkRequestOrigin_Completed::total         7796                       # Table walker requests started/completed, data/inst
system.cpu.dtb.walker.walkRequestOrigin::total        74161                       # Table walker requests started/completed, data/inst
system.cpu.dtb.inst_hits                            0                       # ITB inst hits
system.cpu.dtb.inst_misses                          0                       # ITB inst misses
system.cpu.dtb.read_hits                     24709745                       # DTB read hits
system.cpu.dtb.read_misses                      59626                       # DTB read misses
system.cpu.dtb.write_hits                    19412201                       # DTB write hits
system.cpu.dtb.write_misses                      6739                       # DTB write misses
system.cpu.dtb.flush_tlb                           64                       # Number of times complete TLB was flushed
system.cpu.dtb.flush_tlb_mva                      917                       # Number of times TLB was flushed by MVA
system.cpu.dtb.flush_tlb_mva_asid                   0                       # Number of times TLB was flushed by MVA & ASID
system.cpu.dtb.flush_tlb_asid                       0                       # Number of times TLB was flushed by ASID
system.cpu.dtb.flush_entries                     4351                       # Number of entries that have been flushed from TLB
system.cpu.dtb.align_faults                      1292                       # Number of TLB faults due to alignment restrictions
system.cpu.dtb.prefetch_faults                   1782                       # Number of TLB faults due to prefetch
system.cpu.dtb.domain_faults                        0                       # Number of TLB faults due to domain restrictions
system.cpu.dtb.perms_faults                       733                       # Number of TLB faults due to permissions restrictions
system.cpu.dtb.read_accesses                 24769371                       # DTB read accesses
system.cpu.dtb.write_accesses                19418940                       # DTB write accesses
system.cpu.dtb.inst_accesses                        0                       # ITB inst accesses
system.cpu.dtb.hits                          44121946                       # DTB hits
system.cpu.dtb.misses                           66365                       # DTB misses
system.cpu.dtb.accesses                      44188311                       # DTB accesses
system.cpu.istage2_mmu.stage2_tlb.walker.walks            0                       # Table walker walks requested
system.cpu.istage2_mmu.stage2_tlb.walker.walkRequestOrigin_Requested::Data            0                       # Table walker requests started/completed, data/inst
system.cpu.istage2_mmu.stage2_tlb.walker.walkRequestOrigin_Requested::Inst            0                       # Table walker requests started/completed, data/inst
system.cpu.istage2_mmu.stage2_tlb.walker.walkRequestOrigin_Requested::total            0                       # Table walker requests started/completed, data/inst
system.cpu.istage2_mmu.stage2_tlb.walker.walkRequestOrigin_Completed::Data            0                       # Table walker requests started/completed, data/inst
system.cpu.istage2_mmu.stage2_tlb.walker.walkRequestOrigin_Completed::Inst            0                       # Table walker requests started/completed, data/inst
system.cpu.istage2_mmu.stage2_tlb.walker.walkRequestOrigin_Completed::total            0                       # Table walker requests started/completed, data/inst
system.cpu.istage2_mmu.stage2_tlb.walker.walkRequestOrigin::total            0                       # Table walker requests started/completed, data/inst
system.cpu.istage2_mmu.stage2_tlb.inst_hits            0                       # ITB inst hits
system.cpu.istage2_mmu.stage2_tlb.inst_misses            0                       # ITB inst misses
system.cpu.istage2_mmu.stage2_tlb.read_hits            0                       # DTB read hits
system.cpu.istage2_mmu.stage2_tlb.read_misses            0                       # DTB read misses
system.cpu.istage2_mmu.stage2_tlb.write_hits            0                       # DTB write hits
system.cpu.istage2_mmu.stage2_tlb.write_misses            0                       # DTB write misses
system.cpu.istage2_mmu.stage2_tlb.flush_tlb            0                       # Number of times complete TLB was flushed
system.cpu.istage2_mmu.stage2_tlb.flush_tlb_mva            0                       # Number of times TLB was flushed by MVA
system.cpu.istage2_mmu.stage2_tlb.flush_tlb_mva_asid            0                       # Number of times TLB was flushed by MVA & ASID
system.cpu.istage2_mmu.stage2_tlb.flush_tlb_asid            0                       # Number of times TLB was flushed by ASID
system.cpu.istage2_mmu.stage2_tlb.flush_entries            0                       # Number of entries that have been flushed from TLB
system.cpu.istage2_mmu.stage2_tlb.align_faults            0                       # Number of TLB faults due to alignment restrictions
system.cpu.istage2_mmu.stage2_tlb.prefetch_faults            0                       # Number of TLB faults due to prefetch
system.cpu.istage2_mmu.stage2_tlb.domain_faults            0                       # Number of TLB faults due to domain restrictions
system.cpu.istage2_mmu.stage2_tlb.perms_faults            0                       # Number of TLB faults due to permissions restrictions
system.cpu.istage2_mmu.stage2_tlb.read_accesses            0                       # DTB read accesses
system.cpu.istage2_mmu.stage2_tlb.write_accesses            0                       # DTB write accesses
system.cpu.istage2_mmu.stage2_tlb.inst_accesses            0                       # ITB inst accesses
system.cpu.istage2_mmu.stage2_tlb.hits              0                       # DTB hits
system.cpu.istage2_mmu.stage2_tlb.misses            0                       # DTB misses
system.cpu.istage2_mmu.stage2_tlb.accesses            0                       # DTB accesses
system.cpu.itb.walker.walks                      5448                       # Table walker walks requested
system.cpu.itb.walker.walksShort                 5448                       # Table walker walks initiated with short descriptors
system.cpu.itb.walker.walksShortTerminationLevel::Level1          319                       # Level at which table walker walks with short descriptors terminate
system.cpu.itb.walker.walksShortTerminationLevel::Level2         5129                       # Level at which table walker walks with short descriptors terminate
system.cpu.itb.walker.walkWaitTime::samples         5448                       # Table walker wait (enqueue to first request) latency
system.cpu.itb.walker.walkWaitTime::0            5448    100.00%    100.00% # Table walker wait (enqueue to first request) latency
system.cpu.itb.walker.walkWaitTime::total         5448                       # Table walker wait (enqueue to first request) latency
system.cpu.itb.walker.walkCompletionTime::samples         3189                       # Table walker service (enqueue to completion) latency
system.cpu.itb.walker.walkCompletionTime::mean 11214.016933                       # Table walker service (enqueue to completion) latency
system.cpu.itb.walker.walkCompletionTime::gmean  8947.518192                       # Table walker service (enqueue to completion) latency
system.cpu.itb.walker.walkCompletionTime::stdev  7056.251032                       # Table walker service (enqueue to completion) latency
system.cpu.itb.walker.walkCompletionTime::0-8191         1295     40.61%     40.61% # Table walker service (enqueue to completion) latency
system.cpu.itb.walker.walkCompletionTime::8192-16383         1177     36.91%     77.52% # Table walker service (enqueue to completion) latency
system.cpu.itb.walker.walkCompletionTime::16384-24575          716     22.45%     99.97% # Table walker service (enqueue to completion) latency
system.cpu.itb.walker.walkCompletionTime::81920-90111            1      0.03%    100.00% # Table walker service (enqueue to completion) latency
system.cpu.itb.walker.walkCompletionTime::total         3189                       # Table walker service (enqueue to completion) latency
system.cpu.itb.walker.walksPending::samples    262109500                       # Table walker pending requests distribution
system.cpu.itb.walker.walksPending::0       262109500    100.00%    100.00% # Table walker pending requests distribution
system.cpu.itb.walker.walksPending::total    262109500                       # Table walker pending requests distribution
system.cpu.itb.walker.walkPageSizes::4K          2879     90.28%     90.28% # Table walker page sizes translated
system.cpu.itb.walker.walkPageSizes::1M           310      9.72%    100.00% # Table walker page sizes translated
system.cpu.itb.walker.walkPageSizes::total         3189                       # Table walker page sizes translated
system.cpu.itb.walker.walkRequestOrigin_Requested::Data            0                       # Table walker requests started/completed, data/inst
system.cpu.itb.walker.walkRequestOrigin_Requested::Inst         5448                       # Table walker requests started/completed, data/inst
system.cpu.itb.walker.walkRequestOrigin_Requested::total         5448                       # Table walker requests started/completed, data/inst
system.cpu.itb.walker.walkRequestOrigin_Completed::Data            0                       # Table walker requests started/completed, data/inst
system.cpu.itb.walker.walkRequestOrigin_Completed::Inst         3189                       # Table walker requests started/completed, data/inst
system.cpu.itb.walker.walkRequestOrigin_Completed::total         3189                       # Table walker requests started/completed, data/inst
system.cpu.itb.walker.walkRequestOrigin::total         8637                       # Table walker requests started/completed, data/inst
system.cpu.itb.inst_hits                     57588649                       # ITB inst hits
system.cpu.itb.inst_misses                       5448                       # ITB inst misses
system.cpu.itb.read_hits                            0                       # DTB read hits
system.cpu.itb.read_misses                          0                       # DTB read misses
system.cpu.itb.write_hits                           0                       # DTB write hits
system.cpu.itb.write_misses                         0                       # DTB write misses
system.cpu.itb.flush_tlb                           64                       # Number of times complete TLB was flushed
system.cpu.itb.flush_tlb_mva                      917                       # Number of times TLB was flushed by MVA
system.cpu.itb.flush_tlb_mva_asid                   0                       # Number of times TLB was flushed by MVA & ASID
system.cpu.itb.flush_tlb_asid                       0                       # Number of times TLB was flushed by ASID
system.cpu.itb.flush_entries                     2978                       # Number of entries that have been flushed from TLB
system.cpu.itb.align_faults                         0                       # Number of TLB faults due to alignment restrictions
system.cpu.itb.prefetch_faults                      0                       # Number of TLB faults due to prefetch
system.cpu.itb.domain_faults                        0                       # Number of TLB faults due to domain restrictions
system.cpu.itb.perms_faults                      8467                       # Number of TLB faults due to permissions restrictions
system.cpu.itb.read_accesses                        0                       # DTB read accesses
system.cpu.itb.write_accesses                       0                       # DTB write accesses
system.cpu.itb.inst_accesses                 57594097                       # ITB inst accesses
system.cpu.itb.hits                          57588649                       # DTB hits
system.cpu.itb.misses                            5448                       # DTB misses
system.cpu.itb.accesses                      57594097                       # DTB accesses
system.cpu.numCycles                        315565701                       # number of cpu cycles simulated
system.cpu.numWorkItemsStarted                      0                       # number of work items this cpu started
system.cpu.numWorkItemsCompleted                    0                       # number of work items this cpu completed
system.cpu.committedInsts                   111845135                       # Number of instructions committed
system.cpu.committedOps                     135229426                       # Number of ops (including micro ops) committed
system.cpu.discardedOps                       7692999                       # Number of ops (including micro ops) which were discarded before commit
system.cpu.numFetchSuspends                      3035                       # Number of times Execute suspended instruction fetching
system.cpu.quiesceCycles                   5390158471                       # Total number of cycles that CPU has spent quiesced or waiting for an interrupt
system.cpu.cpi                               2.821452                       # CPI: cycles per instruction
system.cpu.ipc                               0.354427                       # IPC: instructions per cycle
system.cpu.kern.inst.arm                            0                       # number of arm instructions executed
system.cpu.kern.inst.quiesce                     3035                       # number of quiesce instructions executed
system.cpu.tickCycles                       227544928                       # Number of cycles that the object actually ticked
system.cpu.idleCycles                        88020773                       # Total number of cycles that the object has spent stopped
system.cpu.dcache.tags.replacements            842581                       # number of replacements
system.cpu.dcache.tags.tagsinuse           511.947861                       # Cycle average of tags in use
system.cpu.dcache.tags.total_refs            42538360                       # Total number of references to valid blocks.
system.cpu.dcache.tags.sampled_refs            843093                       # Sample count of references to valid blocks.
system.cpu.dcache.tags.avg_refs             50.455122                       # Average number of references to valid blocks.
system.cpu.dcache.tags.warmup_cycle         313221250                       # Cycle when the warmup percentage was hit.
system.cpu.dcache.tags.occ_blocks::cpu.data   511.947861                       # Average occupied blocks per requestor
system.cpu.dcache.tags.occ_percent::cpu.data     0.999898                       # Average percentage of cache occupancy
system.cpu.dcache.tags.occ_percent::total     0.999898                       # Average percentage of cache occupancy
system.cpu.dcache.tags.occ_task_id_blocks::1024          512                       # Occupied blocks per task id
system.cpu.dcache.tags.age_task_id_blocks_1024::0          103                       # Occupied blocks per task id
system.cpu.dcache.tags.age_task_id_blocks_1024::1          351                       # Occupied blocks per task id
system.cpu.dcache.tags.age_task_id_blocks_1024::2           58                       # Occupied blocks per task id
system.cpu.dcache.tags.occ_task_id_percent::1024            1                       # Percentage of cache occupancy per task id
system.cpu.dcache.tags.tag_accesses         175914832                       # Number of tag accesses
system.cpu.dcache.tags.data_accesses        175914832                       # Number of data accesses
system.cpu.dcache.ReadReq_hits::cpu.data     23018220                       # number of ReadReq hits
system.cpu.dcache.ReadReq_hits::total        23018220                       # number of ReadReq hits
system.cpu.dcache.WriteReq_hits::cpu.data     18257083                       # number of WriteReq hits
system.cpu.dcache.WriteReq_hits::total       18257083                       # number of WriteReq hits
system.cpu.dcache.SoftPFReq_hits::cpu.data       356514                       # number of SoftPFReq hits
system.cpu.dcache.SoftPFReq_hits::total        356514                       # number of SoftPFReq hits
system.cpu.dcache.LoadLockedReq_hits::cpu.data       443429                       # number of LoadLockedReq hits
system.cpu.dcache.LoadLockedReq_hits::total       443429                       # number of LoadLockedReq hits
system.cpu.dcache.StoreCondReq_hits::cpu.data       460179                       # number of StoreCondReq hits
system.cpu.dcache.StoreCondReq_hits::total       460179                       # number of StoreCondReq hits
system.cpu.dcache.demand_hits::cpu.data      41275303                       # number of demand (read+write) hits
system.cpu.dcache.demand_hits::total         41275303                       # number of demand (read+write) hits
system.cpu.dcache.overall_hits::cpu.data     41631817                       # number of overall hits
system.cpu.dcache.overall_hits::total        41631817                       # number of overall hits
system.cpu.dcache.ReadReq_misses::cpu.data       492255                       # number of ReadReq misses
system.cpu.dcache.ReadReq_misses::total        492255                       # number of ReadReq misses
system.cpu.dcache.WriteReq_misses::cpu.data       547766                       # number of WriteReq misses
system.cpu.dcache.WriteReq_misses::total       547766                       # number of WriteReq misses
system.cpu.dcache.SoftPFReq_misses::cpu.data       169911                       # number of SoftPFReq misses
system.cpu.dcache.SoftPFReq_misses::total       169911                       # number of SoftPFReq misses
system.cpu.dcache.LoadLockedReq_misses::cpu.data        22569                       # number of LoadLockedReq misses
system.cpu.dcache.LoadLockedReq_misses::total        22569                       # number of LoadLockedReq misses
system.cpu.dcache.StoreCondReq_misses::cpu.data            2                       # number of StoreCondReq misses
system.cpu.dcache.StoreCondReq_misses::total            2                       # number of StoreCondReq misses
system.cpu.dcache.demand_misses::cpu.data      1040021                       # number of demand (read+write) misses
system.cpu.dcache.demand_misses::total        1040021                       # number of demand (read+write) misses
system.cpu.dcache.overall_misses::cpu.data      1209932                       # number of overall misses
system.cpu.dcache.overall_misses::total       1209932                       # number of overall misses
system.cpu.dcache.ReadReq_miss_latency::cpu.data   7281770758                       # number of ReadReq miss cycles
system.cpu.dcache.ReadReq_miss_latency::total   7281770758                       # number of ReadReq miss cycles
system.cpu.dcache.WriteReq_miss_latency::cpu.data  23432647284                       # number of WriteReq miss cycles
system.cpu.dcache.WriteReq_miss_latency::total  23432647284                       # number of WriteReq miss cycles
system.cpu.dcache.LoadLockedReq_miss_latency::cpu.data    285921000                       # number of LoadLockedReq miss cycles
system.cpu.dcache.LoadLockedReq_miss_latency::total    285921000                       # number of LoadLockedReq miss cycles
system.cpu.dcache.StoreCondReq_miss_latency::cpu.data       165500                       # number of StoreCondReq miss cycles
system.cpu.dcache.StoreCondReq_miss_latency::total       165500                       # number of StoreCondReq miss cycles
system.cpu.dcache.demand_miss_latency::cpu.data  30714418042                       # number of demand (read+write) miss cycles
system.cpu.dcache.demand_miss_latency::total  30714418042                       # number of demand (read+write) miss cycles
system.cpu.dcache.overall_miss_latency::cpu.data  30714418042                       # number of overall miss cycles
system.cpu.dcache.overall_miss_latency::total  30714418042                       # number of overall miss cycles
system.cpu.dcache.ReadReq_accesses::cpu.data     23510475                       # number of ReadReq accesses(hits+misses)
system.cpu.dcache.ReadReq_accesses::total     23510475                       # number of ReadReq accesses(hits+misses)
system.cpu.dcache.WriteReq_accesses::cpu.data     18804849                       # number of WriteReq accesses(hits+misses)
system.cpu.dcache.WriteReq_accesses::total     18804849                       # number of WriteReq accesses(hits+misses)
system.cpu.dcache.SoftPFReq_accesses::cpu.data       526425                       # number of SoftPFReq accesses(hits+misses)
system.cpu.dcache.SoftPFReq_accesses::total       526425                       # number of SoftPFReq accesses(hits+misses)
system.cpu.dcache.LoadLockedReq_accesses::cpu.data       465998                       # number of LoadLockedReq accesses(hits+misses)
system.cpu.dcache.LoadLockedReq_accesses::total       465998                       # number of LoadLockedReq accesses(hits+misses)
system.cpu.dcache.StoreCondReq_accesses::cpu.data       460181                       # number of StoreCondReq accesses(hits+misses)
system.cpu.dcache.StoreCondReq_accesses::total       460181                       # number of StoreCondReq accesses(hits+misses)
system.cpu.dcache.demand_accesses::cpu.data     42315324                       # number of demand (read+write) accesses
system.cpu.dcache.demand_accesses::total     42315324                       # number of demand (read+write) accesses
system.cpu.dcache.overall_accesses::cpu.data     42841749                       # number of overall (read+write) accesses
system.cpu.dcache.overall_accesses::total     42841749                       # number of overall (read+write) accesses
system.cpu.dcache.ReadReq_miss_rate::cpu.data     0.020938                       # miss rate for ReadReq accesses
system.cpu.dcache.ReadReq_miss_rate::total     0.020938                       # miss rate for ReadReq accesses
system.cpu.dcache.WriteReq_miss_rate::cpu.data     0.029129                       # miss rate for WriteReq accesses
system.cpu.dcache.WriteReq_miss_rate::total     0.029129                       # miss rate for WriteReq accesses
system.cpu.dcache.SoftPFReq_miss_rate::cpu.data     0.322764                       # miss rate for SoftPFReq accesses
system.cpu.dcache.SoftPFReq_miss_rate::total     0.322764                       # miss rate for SoftPFReq accesses
system.cpu.dcache.LoadLockedReq_miss_rate::cpu.data     0.048432                       # miss rate for LoadLockedReq accesses
system.cpu.dcache.LoadLockedReq_miss_rate::total     0.048432                       # miss rate for LoadLockedReq accesses
system.cpu.dcache.StoreCondReq_miss_rate::cpu.data     0.000004                       # miss rate for StoreCondReq accesses
system.cpu.dcache.StoreCondReq_miss_rate::total     0.000004                       # miss rate for StoreCondReq accesses
system.cpu.dcache.demand_miss_rate::cpu.data     0.024578                       # miss rate for demand accesses
system.cpu.dcache.demand_miss_rate::total     0.024578                       # miss rate for demand accesses
system.cpu.dcache.overall_miss_rate::cpu.data     0.028242                       # miss rate for overall accesses
system.cpu.dcache.overall_miss_rate::total     0.028242                       # miss rate for overall accesses
system.cpu.dcache.ReadReq_avg_miss_latency::cpu.data 14792.680131                       # average ReadReq miss latency
system.cpu.dcache.ReadReq_avg_miss_latency::total 14792.680131                       # average ReadReq miss latency
system.cpu.dcache.WriteReq_avg_miss_latency::cpu.data 42778.572025                       # average WriteReq miss latency
system.cpu.dcache.WriteReq_avg_miss_latency::total 42778.572025                       # average WriteReq miss latency
system.cpu.dcache.LoadLockedReq_avg_miss_latency::cpu.data 12668.749169                       # average LoadLockedReq miss latency
system.cpu.dcache.LoadLockedReq_avg_miss_latency::total 12668.749169                       # average LoadLockedReq miss latency
system.cpu.dcache.StoreCondReq_avg_miss_latency::cpu.data        82750                       # average StoreCondReq miss latency
system.cpu.dcache.StoreCondReq_avg_miss_latency::total        82750                       # average StoreCondReq miss latency
system.cpu.dcache.demand_avg_miss_latency::cpu.data 29532.497942                       # average overall miss latency
system.cpu.dcache.demand_avg_miss_latency::total 29532.497942                       # average overall miss latency
system.cpu.dcache.overall_avg_miss_latency::cpu.data 25385.243172                       # average overall miss latency
system.cpu.dcache.overall_avg_miss_latency::total 25385.243172                       # average overall miss latency
system.cpu.dcache.blocked_cycles::no_mshrs          240                       # number of cycles access was blocked
system.cpu.dcache.blocked_cycles::no_targets            0                       # number of cycles access was blocked
system.cpu.dcache.blocked::no_mshrs                20                       # number of cycles access was blocked
system.cpu.dcache.blocked::no_targets               0                       # number of cycles access was blocked
system.cpu.dcache.avg_blocked_cycles::no_mshrs           12                       # average number of cycles each access was blocked
system.cpu.dcache.avg_blocked_cycles::no_targets          nan                       # average number of cycles each access was blocked
system.cpu.dcache.fast_writes                       0                       # number of fast writes performed
system.cpu.dcache.cache_copies                      0                       # number of cache copies performed
system.cpu.dcache.writebacks::writebacks       698329                       # number of writebacks
system.cpu.dcache.writebacks::total            698329                       # number of writebacks
system.cpu.dcache.ReadReq_mshr_hits::cpu.data        75041                       # number of ReadReq MSHR hits
system.cpu.dcache.ReadReq_mshr_hits::total        75041                       # number of ReadReq MSHR hits
system.cpu.dcache.WriteReq_mshr_hits::cpu.data       249041                       # number of WriteReq MSHR hits
system.cpu.dcache.WriteReq_mshr_hits::total       249041                       # number of WriteReq MSHR hits
system.cpu.dcache.LoadLockedReq_mshr_hits::cpu.data        14319                       # number of LoadLockedReq MSHR hits
system.cpu.dcache.LoadLockedReq_mshr_hits::total        14319                       # number of LoadLockedReq MSHR hits
system.cpu.dcache.demand_mshr_hits::cpu.data       324082                       # number of demand (read+write) MSHR hits
system.cpu.dcache.demand_mshr_hits::total       324082                       # number of demand (read+write) MSHR hits
system.cpu.dcache.overall_mshr_hits::cpu.data       324082                       # number of overall MSHR hits
system.cpu.dcache.overall_mshr_hits::total       324082                       # number of overall MSHR hits
system.cpu.dcache.ReadReq_mshr_misses::cpu.data       417214                       # number of ReadReq MSHR misses
system.cpu.dcache.ReadReq_mshr_misses::total       417214                       # number of ReadReq MSHR misses
system.cpu.dcache.WriteReq_mshr_misses::cpu.data       298725                       # number of WriteReq MSHR misses
system.cpu.dcache.WriteReq_mshr_misses::total       298725                       # number of WriteReq MSHR misses
system.cpu.dcache.SoftPFReq_mshr_misses::cpu.data       121762                       # number of SoftPFReq MSHR misses
system.cpu.dcache.SoftPFReq_mshr_misses::total       121762                       # number of SoftPFReq MSHR misses
system.cpu.dcache.LoadLockedReq_mshr_misses::cpu.data         8250                       # number of LoadLockedReq MSHR misses
system.cpu.dcache.LoadLockedReq_mshr_misses::total         8250                       # number of LoadLockedReq MSHR misses
system.cpu.dcache.StoreCondReq_mshr_misses::cpu.data            2                       # number of StoreCondReq MSHR misses
system.cpu.dcache.StoreCondReq_mshr_misses::total            2                       # number of StoreCondReq MSHR misses
system.cpu.dcache.demand_mshr_misses::cpu.data       715939                       # number of demand (read+write) MSHR misses
system.cpu.dcache.demand_mshr_misses::total       715939                       # number of demand (read+write) MSHR misses
system.cpu.dcache.overall_mshr_misses::cpu.data       837701                       # number of overall MSHR misses
system.cpu.dcache.overall_mshr_misses::total       837701                       # number of overall MSHR misses
system.cpu.dcache.ReadReq_mshr_miss_latency::cpu.data   5703446143                       # number of ReadReq MSHR miss cycles
system.cpu.dcache.ReadReq_mshr_miss_latency::total   5703446143                       # number of ReadReq MSHR miss cycles
system.cpu.dcache.WriteReq_mshr_miss_latency::cpu.data  12331014162                       # number of WriteReq MSHR miss cycles
system.cpu.dcache.WriteReq_mshr_miss_latency::total  12331014162                       # number of WriteReq MSHR miss cycles
system.cpu.dcache.SoftPFReq_mshr_miss_latency::cpu.data   1562604290                       # number of SoftPFReq MSHR miss cycles
system.cpu.dcache.SoftPFReq_mshr_miss_latency::total   1562604290                       # number of SoftPFReq MSHR miss cycles
system.cpu.dcache.LoadLockedReq_mshr_miss_latency::cpu.data    106206750                       # number of LoadLockedReq MSHR miss cycles
system.cpu.dcache.LoadLockedReq_mshr_miss_latency::total    106206750                       # number of LoadLockedReq MSHR miss cycles
system.cpu.dcache.StoreCondReq_mshr_miss_latency::cpu.data       162500                       # number of StoreCondReq MSHR miss cycles
system.cpu.dcache.StoreCondReq_mshr_miss_latency::total       162500                       # number of StoreCondReq MSHR miss cycles
system.cpu.dcache.demand_mshr_miss_latency::cpu.data  18034460305                       # number of demand (read+write) MSHR miss cycles
system.cpu.dcache.demand_mshr_miss_latency::total  18034460305                       # number of demand (read+write) MSHR miss cycles
system.cpu.dcache.overall_mshr_miss_latency::cpu.data  19597064595                       # number of overall MSHR miss cycles
system.cpu.dcache.overall_mshr_miss_latency::total  19597064595                       # number of overall MSHR miss cycles
system.cpu.dcache.ReadReq_mshr_uncacheable_latency::cpu.data   5836567000                       # number of ReadReq MSHR uncacheable cycles
system.cpu.dcache.ReadReq_mshr_uncacheable_latency::total   5836567000                       # number of ReadReq MSHR uncacheable cycles
system.cpu.dcache.WriteReq_mshr_uncacheable_latency::cpu.data   4510270500                       # number of WriteReq MSHR uncacheable cycles
system.cpu.dcache.WriteReq_mshr_uncacheable_latency::total   4510270500                       # number of WriteReq MSHR uncacheable cycles
system.cpu.dcache.overall_mshr_uncacheable_latency::cpu.data  10346837500                       # number of overall MSHR uncacheable cycles
[...]
system.iocache.WriteInvalidateReq_misses::realview.ide        36224                       # number of WriteInvalidateReq misses
system.iocache.WriteInvalidateReq_misses::total        36224                       # number of WriteInvalidateReq misses
system.iocache.demand_misses::realview.ide          234                       # number of demand (read+write) misses
system.iocache.demand_misses::total               234                       # number of demand (read+write) misses
system.iocache.overall_misses::realview.ide          234                       # number of overall misses
system.iocache.overall_misses::total              234                       # number of overall misses
system.iocache.ReadReq_miss_latency::realview.ide     29239875                       # number of ReadReq miss cycles
system.iocache.ReadReq_miss_latency::total     29239875                       # number of ReadReq miss cycles
system.iocache.WriteInvalidateReq_miss_latency::realview.ide   6646548599                       # number of WriteInvalidateReq miss cycles
system.iocache.WriteInvalidateReq_miss_latency::total   6646548599                       # number of WriteInvalidateReq miss cycles
system.iocache.demand_miss_latency::realview.ide     29239875                       # number of demand (read+write) miss cycles
system.iocache.demand_miss_latency::total     29239875                       # number of demand (read+write) miss cycles
system.iocache.overall_miss_latency::realview.ide     29239875                       # number of overall miss cycles
system.iocache.overall_miss_latency::total     29239875                       # number of overall miss cycles
system.iocache.ReadReq_accesses::realview.ide          234                       # number of ReadReq accesses(hits+misses)
system.iocache.ReadReq_accesses::total            234                       # number of ReadReq accesses(hits+misses)
system.iocache.WriteInvalidateReq_accesses::realview.ide        36224                       # number of WriteInvalidateReq accesses(hits+misses)
system.iocache.WriteInvalidateReq_accesses::total        36224                       # number of WriteInvalidateReq accesses(hits+misses)
system.iocache.demand_accesses::realview.ide          234                       # number of demand (read+write) accesses
system.iocache.demand_accesses::total             234                       # number of demand (read+write) accesses
system.iocache.overall_accesses::realview.ide          234                       # number of overall (read+write) accesses
system.iocache.overall_accesses::total            234                       # number of overall (read+write) accesses
system.iocache.ReadReq_miss_rate::realview.ide            1                       # miss rate for ReadReq accesses
system.iocache.ReadReq_miss_rate::total             1                       # miss rate for ReadReq accesses
system.iocache.WriteInvalidateReq_miss_rate::realview.ide            1                       # miss rate for WriteInvalidateReq accesses
system.iocache.WriteInvalidateReq_miss_rate::total            1                       # miss rate for WriteInvalidateReq accesses
system.iocache.demand_miss_rate::realview.ide            1                       # miss rate for demand accesses
system.iocache.demand_miss_rate::total              1                       # miss rate for demand accesses
system.iocache.overall_miss_rate::realview.ide            1                       # miss rate for overall accesses
system.iocache.overall_miss_rate::total             1                       # miss rate for overall accesses
system.iocache.ReadReq_avg_miss_latency::realview.ide 124956.730769                       # average ReadReq miss latency
system.iocache.ReadReq_avg_miss_latency::total 124956.730769                       # average ReadReq miss latency
system.iocache.WriteInvalidateReq_avg_miss_latency::realview.ide 183484.667596                       # average WriteInvalidateReq miss latency
system.iocache.WriteInvalidateReq_avg_miss_latency::total 183484.667596                       # average WriteInvalidateReq miss latency
system.iocache.demand_avg_miss_latency::realview.ide 124956.730769                       # average overall miss latency
system.iocache.demand_avg_miss_latency::total 124956.730769                       # average overall miss latency
system.iocache.overall_avg_miss_latency::realview.ide 124956.730769                       # average overall miss latency
system.iocache.overall_avg_miss_latency::total 124956.730769                       # average overall miss latency
system.iocache.blocked_cycles::no_mshrs         22676                       # number of cycles access was blocked
system.iocache.blocked_cycles::no_targets            0                       # number of cycles access was blocked
system.iocache.blocked::no_mshrs                 3466                       # number of cycles access was blocked
system.iocache.blocked::no_targets                  0                       # number of cycles access was blocked
system.iocache.avg_blocked_cycles::no_mshrs     6.542412                       # average number of cycles each access was blocked
system.iocache.avg_blocked_cycles::no_targets          nan                       # average number of cycles each access was blocked
system.iocache.fast_writes                          0                       # number of fast writes performed
system.iocache.cache_copies                         0                       # number of cache copies performed
system.iocache.writebacks::writebacks           36190                       # number of writebacks
system.iocache.writebacks::total                36190                       # number of writebacks
system.iocache.ReadReq_mshr_misses::realview.ide          234                       # number of ReadReq MSHR misses
system.iocache.ReadReq_mshr_misses::total          234                       # number of ReadReq MSHR misses
system.iocache.WriteInvalidateReq_mshr_misses::realview.ide        36224                       # number of WriteInvalidateReq MSHR misses
system.iocache.WriteInvalidateReq_mshr_misses::total        36224                       # number of WriteInvalidateReq MSHR misses
system.iocache.demand_mshr_misses::realview.ide          234                       # number of demand (read+write) MSHR misses
system.iocache.demand_mshr_misses::total          234                       # number of demand (read+write) MSHR misses
system.iocache.overall_mshr_misses::realview.ide          234                       # number of overall MSHR misses
system.iocache.overall_mshr_misses::total          234                       # number of overall MSHR misses
system.iocache.ReadReq_mshr_miss_latency::realview.ide     16928877                       # number of ReadReq MSHR miss cycles
system.iocache.ReadReq_mshr_miss_latency::total     16928877                       # number of ReadReq MSHR miss cycles
system.iocache.WriteInvalidateReq_mshr_miss_latency::realview.ide   4762888611                       # number of WriteInvalidateReq MSHR miss cycles
system.iocache.WriteInvalidateReq_mshr_miss_latency::total   4762888611                       # number of WriteInvalidateReq MSHR miss cycles
system.iocache.demand_mshr_miss_latency::realview.ide     16928877                       # number of demand (read+write) MSHR miss cycles
system.iocache.demand_mshr_miss_latency::total     16928877                       # number of demand (read+write) MSHR miss cycles
system.iocache.overall_mshr_miss_latency::realview.ide     16928877                       # number of overall MSHR miss cycles
system.iocache.overall_mshr_miss_latency::total     16928877                       # number of overall MSHR miss cycles
system.iocache.ReadReq_mshr_miss_rate::realview.ide            1                       # mshr miss rate for ReadReq accesses
system.iocache.ReadReq_mshr_miss_rate::total            1                       # mshr miss rate for ReadReq accesses
system.iocache.WriteInvalidateReq_mshr_miss_rate::realview.ide            1                       # mshr miss rate for WriteInvalidateReq accesses
system.iocache.WriteInvalidateReq_mshr_miss_rate::total            1                       # mshr miss rate for WriteInvalidateReq accesses
system.iocache.demand_mshr_miss_rate::realview.ide            1                       # mshr miss rate for demand accesses
system.iocache.demand_mshr_miss_rate::total            1                       # mshr miss rate for demand accesses
system.iocache.overall_mshr_miss_rate::realview.ide            1                       # mshr miss rate for overall accesses
system.iocache.overall_mshr_miss_rate::total            1                       # mshr miss rate for overall accesses
system.iocache.ReadReq_avg_mshr_miss_latency::realview.ide 72345.628205                       # average ReadReq mshr miss latency
system.iocache.ReadReq_avg_mshr_miss_latency::total 72345.628205                       # average ReadReq mshr miss latency
system.iocache.WriteInvalidateReq_avg_mshr_miss_latency::realview.ide 131484.336655                       # average WriteInvalidateReq mshr miss latency
system.iocache.WriteInvalidateReq_avg_mshr_miss_latency::total 131484.336655                       # average WriteInvalidateReq mshr miss latency
system.iocache.demand_avg_mshr_miss_latency::realview.ide 72345.628205                       # average overall mshr miss latency
system.iocache.demand_avg_mshr_miss_latency::total 72345.628205                       # average overall mshr miss latency
system.iocache.overall_avg_mshr_miss_latency::realview.ide 72345.628205                       # average overall mshr miss latency
system.iocache.overall_avg_mshr_miss_latency::total 72345.628205                       # average overall mshr miss latency
system.iocache.no_allocate_misses                   0                       # Number of misses that were no-allocate
system.membus.trans_dist::ReadReq               71736                       # Transaction distribution
system.membus.trans_dist::ReadResp              71736                       # Transaction distribution
system.membus.trans_dist::WriteReq              27583                       # Transaction distribution
system.membus.trans_dist::WriteResp             27583                       # Transaction distribution
system.membus.trans_dist::Writeback            124547                       # Transaction distribution
system.membus.trans_dist::WriteInvalidateReq        36224                       # Transaction distribution
system.membus.trans_dist::WriteInvalidateResp        36224                       # Transaction distribution
system.membus.trans_dist::UpgradeReq             4591                       # Transaction distribution
system.membus.trans_dist::SCUpgradeReq              2                       # Transaction distribution
system.membus.trans_dist::UpgradeResp            4593                       # Transaction distribution
system.membus.trans_dist::ReadExReq            129383                       # Transaction distribution
system.membus.trans_dist::ReadExResp           129383                       # Transaction distribution
system.membus.pkt_count_system.cpu.l2cache.mem_side::system.bridge.slave       105478                       # Packet count per connected master and slave (bytes)
system.membus.pkt_count_system.cpu.l2cache.mem_side::system.realview.nvmem.port           14                       # Packet count per connected master and slave (bytes)
system.membus.pkt_count_system.cpu.l2cache.mem_side::system.realview.gic.pio         2068                       # Packet count per connected master and slave (bytes)
system.membus.pkt_count_system.cpu.l2cache.mem_side::system.physmem.port       446633                       # Packet count per connected master and slave (bytes)
system.membus.pkt_count_system.cpu.l2cache.mem_side::total       554193                       # Packet count per connected master and slave (bytes)
system.membus.pkt_count_system.iocache.mem_side::system.physmem.port       108887                       # Packet count per connected master and slave (bytes)
system.membus.pkt_count_system.iocache.mem_side::total       108887                       # Packet count per connected master and slave (bytes)
system.membus.pkt_count::total                 663080                       # Packet count per connected master and slave (bytes)
system.membus.pkt_size_system.cpu.l2cache.mem_side::system.bridge.slave       159125                       # Cumulative packet size per connected master and slave (bytes)
system.membus.pkt_size_system.cpu.l2cache.mem_side::system.realview.nvmem.port          448                       # Cumulative packet size per connected master and slave (bytes)
system.membus.pkt_size_system.cpu.l2cache.mem_side::system.realview.gic.pio         4136                       # Cumulative packet size per connected master and slave (bytes)
system.membus.pkt_size_system.cpu.l2cache.mem_side::system.physmem.port     16520600                       # Cumulative packet size per connected master and slave (bytes)
system.membus.pkt_size_system.cpu.l2cache.mem_side::total     16684309                       # Cumulative packet size per connected master and slave (bytes)
system.membus.pkt_size_system.iocache.mem_side::system.physmem.port      4635456                       # Cumulative packet size per connected master and slave (bytes)
system.membus.pkt_size_system.iocache.mem_side::total      4635456                       # Cumulative packet size per connected master and slave (bytes)
system.membus.pkt_size::total                21319765                       # Cumulative packet size per connected master and slave (bytes)
system.membus.snoops                              505                       # Total snoops (count)
system.membus.snoop_fanout::samples            332236                       # Request fanout histogram
system.membus.snoop_fanout::mean                    1                       # Request fanout histogram
system.membus.snoop_fanout::stdev                   0                       # Request fanout histogram
system.membus.snoop_fanout::underflows              0      0.00%      0.00% # Request fanout histogram
system.membus.snoop_fanout::0                       0      0.00%      0.00% # Request fanout histogram
system.membus.snoop_fanout::1                  332236    100.00%    100.00% # Request fanout histogram
system.membus.snoop_fanout::2                       0      0.00%    100.00% # Request fanout histogram
system.membus.snoop_fanout::overflows               0      0.00%    100.00% # Request fanout histogram
system.membus.snoop_fanout::min_value               1                       # Request fanout histogram
system.membus.snoop_fanout::max_value               1                       # Request fanout histogram
system.membus.snoop_fanout::total              332236                       # Request fanout histogram
system.membus.reqLayer0.occupancy            90365500                       # Layer occupancy (ticks)
system.membus.reqLayer0.utilization               0.0                       # Layer utilization (%)
system.membus.reqLayer1.occupancy                7500                       # Layer occupancy (ticks)
system.membus.reqLayer1.utilization               0.0                       # Layer utilization (%)
system.membus.reqLayer2.occupancy             1715000                       # Layer occupancy (ticks)
system.membus.reqLayer2.utilization               0.0                       # Layer utilization (%)
system.membus.reqLayer5.occupancy          1025055153                       # Layer occupancy (ticks)
system.membus.reqLayer5.utilization               0.0                       # Layer utilization (%)
system.membus.respLayer2.occupancy          997764949                       # Layer occupancy (ticks)
system.membus.respLayer2.utilization              0.0                       # Layer utilization (%)
system.membus.respLayer3.occupancy           37471493                       # Layer occupancy (ticks)
system.membus.respLayer3.utilization              0.0                       # Layer utilization (%)
system.realview.ethernet.descDMAReads               0                       # Number of descriptors the device read w/ DMA
system.realview.ethernet.descDMAWrites              0                       # Number of descriptors the device wrote w/ DMA
system.realview.ethernet.descDmaReadBytes            0                       # number of descriptor bytes read w/ DMA
system.realview.ethernet.descDmaWriteBytes            0                       # number of descriptor bytes write w/ DMA
system.realview.ethernet.postedSwi                  0                       # number of software interrupts posted to CPU
system.realview.ethernet.coalescedSwi             nan                       # average number of Swi's coalesced into each post
system.realview.ethernet.totalSwi                   0                       # total number of Swi written to ISR
system.realview.ethernet.postedRxIdle               0                       # number of rxIdle interrupts posted to CPU
system.realview.ethernet.coalescedRxIdle          nan                       # average number of RxIdle's coalesced into each post
system.realview.ethernet.totalRxIdle                0                       # total number of RxIdle written to ISR
system.realview.ethernet.postedRxOk                 0                       # number of RxOk interrupts posted to CPU
system.realview.ethernet.coalescedRxOk            nan                       # average number of RxOk's coalesced into each post
system.realview.ethernet.totalRxOk                  0                       # total number of RxOk written to ISR
system.realview.ethernet.postedRxDesc               0                       # number of RxDesc interrupts posted to CPU
system.realview.ethernet.coalescedRxDesc          nan                       # average number of RxDesc's coalesced into each post
system.realview.ethernet.totalRxDesc                0                       # total number of RxDesc written to ISR
system.realview.ethernet.postedTxOk                 0                       # number of TxOk interrupts posted to CPU
system.realview.ethernet.coalescedTxOk            nan                       # average number of TxOk's coalesced into each post
system.realview.ethernet.totalTxOk                  0                       # total number of TxOk written to ISR
system.realview.ethernet.postedTxIdle               0                       # number of TxIdle interrupts posted to CPU
system.realview.ethernet.coalescedTxIdle          nan                       # average number of TxIdle's coalesced into each post
system.realview.ethernet.totalTxIdle                0                       # total number of TxIdle written to ISR
system.realview.ethernet.postedTxDesc               0                       # number of TxDesc interrupts posted to CPU
system.realview.ethernet.coalescedTxDesc          nan                       # average number of TxDesc's coalesced into each post
system.realview.ethernet.totalTxDesc                0                       # total number of TxDesc written to ISR
system.realview.ethernet.postedRxOrn                0                       # number of RxOrn posted to CPU
system.realview.ethernet.coalescedRxOrn           nan                       # average number of RxOrn's coalesced into each post
system.realview.ethernet.totalRxOrn                 0                       # total number of RxOrn written to ISR
system.realview.ethernet.coalescedTotal           nan                       # average number of interrupts coalesced into each post
system.realview.ethernet.postedInterrupts            0                       # number of posts to CPU
system.realview.ethernet.droppedPackets             0                       # number of packets dropped

---------- End Simulation Statistics   ----------
