
---------- Begin Simulation Statistics ----------
sim_seconds                                  0.000355                       # Number of seconds simulated
sim_ticks                                   355481000                       # Number of ticks simulated
final_tick                               2271875807000                       # Number of ticks from beginning of simulation (restored from checkpoints and never reset)
sim_freq                                 1000000000000                       # Frequency of simulated ticks
host_inst_rate                              255769676                       # Simulator instruction rate (inst/s)
host_op_rate                                255759406                       # Simulator op (including micro ops) rate (op/s)
host_tick_rate                              673861998                       # Simulator tick rate (ticks/s)
host_mem_usage                                1299360                       # Number of bytes of host memory used
host_seconds                                     0.53                       # Real time elapsed on the host
sim_insts                                   134915670                       # Number of instructions simulated
sim_ops                                     134915670                       # Number of ops (including micro ops) simulated
system.voltage_domain.voltage                       1                       # Voltage in Volts
system.clk_domain.clock                          1000                       # Clock period in ticks
system.mem_ctrls0.bytes_read::switch_cpus0.inst       107904                       # Number of bytes read from this memory
system.mem_ctrls0.bytes_read::switch_cpus0.data        57856                       # Number of bytes read from this memory
system.mem_ctrls0.bytes_read::switch_cpus1.inst        24384                       # Number of bytes read from this memory
system.mem_ctrls0.bytes_read::switch_cpus1.data        39040                       # Number of bytes read from this memory
system.mem_ctrls0.bytes_read::switch_cpus2.inst       104256                       # Number of bytes read from this memory
system.mem_ctrls0.bytes_read::switch_cpus2.data       186688                       # Number of bytes read from this memory
system.mem_ctrls0.bytes_read::total            520128                       # Number of bytes read from this memory
system.mem_ctrls0.bytes_inst_read::switch_cpus0.inst       107904                       # Number of instructions bytes read from this memory
system.mem_ctrls0.bytes_inst_read::switch_cpus1.inst        24384                       # Number of instructions bytes read from this memory
system.mem_ctrls0.bytes_inst_read::switch_cpus2.inst       104256                       # Number of instructions bytes read from this memory
system.mem_ctrls0.bytes_inst_read::total       236544                       # Number of instructions bytes read from this memory
system.mem_ctrls0.bytes_written::writebacks       142016                       # Number of bytes written to this memory
system.mem_ctrls0.bytes_written::total         142016                       # Number of bytes written to this memory
system.mem_ctrls0.num_reads::switch_cpus0.inst         1686                       # Number of read requests responded to by this memory
system.mem_ctrls0.num_reads::switch_cpus0.data          904                       # Number of read requests responded to by this memory
system.mem_ctrls0.num_reads::switch_cpus1.inst          381                       # Number of read requests responded to by this memory
system.mem_ctrls0.num_reads::switch_cpus1.data          610                       # Number of read requests responded to by this memory
system.mem_ctrls0.num_reads::switch_cpus2.inst         1629                       # Number of read requests responded to by this memory
system.mem_ctrls0.num_reads::switch_cpus2.data         2917                       # Number of read requests responded to by this memory
system.mem_ctrls0.num_reads::total               8127                       # Number of read requests responded to by this memory
system.mem_ctrls0.num_writes::writebacks         2219                       # Number of write requests responded to by this memory
system.mem_ctrls0.num_writes::total              2219                       # Number of write requests responded to by this memory
system.mem_ctrls0.bw_read::switch_cpus0.inst    303543649                       # Total read bandwidth from this memory (bytes/s)
system.mem_ctrls0.bw_read::switch_cpus0.data    162754128                       # Total read bandwidth from this memory (bytes/s)
system.mem_ctrls0.bw_read::switch_cpus1.inst     68594383                       # Total read bandwidth from this memory (bytes/s)
system.mem_ctrls0.bw_read::switch_cpus1.data    109823029                       # Total read bandwidth from this memory (bytes/s)
system.mem_ctrls0.bw_read::switch_cpus2.inst    293281497                       # Total read bandwidth from this memory (bytes/s)
system.mem_ctrls0.bw_read::switch_cpus2.data    525170122                       # Total read bandwidth from this memory (bytes/s)
system.mem_ctrls0.bw_read::total           1463166808                       # Total read bandwidth from this memory (bytes/s)
system.mem_ctrls0.bw_inst_read::switch_cpus0.inst    303543649                       # Instruction read bandwidth from this memory (bytes/s)
system.mem_ctrls0.bw_inst_read::switch_cpus1.inst     68594383                       # Instruction read bandwidth from this memory (bytes/s)
system.mem_ctrls0.bw_inst_read::switch_cpus2.inst    293281497                       # Instruction read bandwidth from this memory (bytes/s)
system.mem_ctrls0.bw_inst_read::total       665419530                       # Instruction read bandwidth from this memory (bytes/s)
system.mem_ctrls0.bw_write::writebacks      399503771                       # Write bandwidth from this memory (bytes/s)
system.mem_ctrls0.bw_write::total           399503771                       # Write bandwidth from this memory (bytes/s)
system.mem_ctrls0.bw_total::writebacks      399503771                       # Total bandwidth to/from this memory (bytes/s)
system.mem_ctrls0.bw_total::switch_cpus0.inst    303543649                       # Total bandwidth to/from this memory (bytes/s)
system.mem_ctrls0.bw_total::switch_cpus0.data    162754128                       # Total bandwidth to/from this memory (bytes/s)
system.mem_ctrls0.bw_total::switch_cpus1.inst     68594383                       # Total bandwidth to/from this memory (bytes/s)
system.mem_ctrls0.bw_total::switch_cpus1.data    109823029                       # Total bandwidth to/from this memory (bytes/s)
system.mem_ctrls0.bw_total::switch_cpus2.inst    293281497                       # Total bandwidth to/from this memory (bytes/s)
system.mem_ctrls0.bw_total::switch_cpus2.data    525170122                       # Total bandwidth to/from this memory (bytes/s)
system.mem_ctrls0.bw_total::total          1862670579                       # Total bandwidth to/from this memory (bytes/s)
system.mem_ctrls0.readReqs                          0                       # Number of read requests accepted
system.mem_ctrls0.writeReqs                         0                       # Number of write requests accepted
system.mem_ctrls0.readBursts                        0                       # Number of DRAM read bursts, including those serviced by the write queue
system.mem_ctrls0.writeBursts                       0                       # Number of DRAM write bursts, including those merged in the write queue
system.mem_ctrls0.bytesReadDRAM                     0                       # Total number of bytes read from DRAM
system.mem_ctrls0.bytesReadWrQ                      0                       # Total number of bytes read from write queue
system.mem_ctrls0.bytesWritten                      0                       # Total number of bytes written to DRAM
system.mem_ctrls0.bytesReadSys                      0                       # Total read bytes from the system interface side
system.mem_ctrls0.bytesWrittenSys                   0                       # Total written bytes from the system interface side
system.mem_ctrls0.servicedByWrQ                     0                       # Number of DRAM read bursts serviced by the write queue
system.mem_ctrls0.mergedWrBursts                    0                       # Number of DRAM write bursts merged with an existing one
system.mem_ctrls0.neitherReadNorWriteReqs            0                       # Number of requests that are neither read nor write
system.mem_ctrls0.perBankRdBursts::0                0                       # Per bank write bursts
system.mem_ctrls0.perBankRdBursts::1                0                       # Per bank write bursts
system.mem_ctrls0.perBankRdBursts::2                0                       # Per bank write bursts
system.mem_ctrls0.perBankRdBursts::3                0                       # Per bank write bursts
system.mem_ctrls0.perBankRdBursts::4                0                       # Per bank write bursts
system.mem_ctrls0.perBankRdBursts::5                0                       # Per bank write bursts
system.mem_ctrls0.perBankRdBursts::6                0                       # Per bank write bursts
system.mem_ctrls0.perBankRdBursts::7                0                       # Per bank write bursts
system.mem_ctrls0.perBankRdBursts::8                0                       # Per bank write bursts
system.mem_ctrls0.perBankRdBursts::9                0                       # Per bank write bursts
system.mem_ctrls0.perBankRdBursts::10               0                       # Per bank write bursts
system.mem_ctrls0.perBankRdBursts::11               0                       # Per bank write bursts
system.mem_ctrls0.perBankRdBursts::12               0                       # Per bank write bursts
system.mem_ctrls0.perBankRdBursts::13               0                       # Per bank write bursts
system.mem_ctrls0.perBankRdBursts::14               0                       # Per bank write bursts
system.mem_ctrls0.perBankRdBursts::15               0                       # Per bank write bursts
system.mem_ctrls0.perBankWrBursts::0                0                       # Per bank write bursts
system.mem_ctrls0.perBankWrBursts::1                0                       # Per bank write bursts
system.mem_ctrls0.perBankWrBursts::2                0                       # Per bank write bursts
system.mem_ctrls0.perBankWrBursts::3                0                       # Per bank write bursts
system.mem_ctrls0.perBankWrBursts::4                0                       # Per bank write bursts
system.mem_ctrls0.perBankWrBursts::5                0                       # Per bank write bursts
system.mem_ctrls0.perBankWrBursts::6                0                       # Per bank write bursts
system.mem_ctrls0.perBankWrBursts::7                0                       # Per bank write bursts
system.mem_ctrls0.perBankWrBursts::8                0                       # Per bank write bursts
system.mem_ctrls0.perBankWrBursts::9                0                       # Per bank write bursts
system.mem_ctrls0.perBankWrBursts::10               0                       # Per bank write bursts
system.mem_ctrls0.perBankWrBursts::11               0                       # Per bank write bursts
system.mem_ctrls0.perBankWrBursts::12               0                       # Per bank write bursts
system.mem_ctrls0.perBankWrBursts::13               0                       # Per bank write bursts
system.mem_ctrls0.perBankWrBursts::14               0                       # Per bank write bursts
system.mem_ctrls0.perBankWrBursts::15               0                       # Per bank write bursts
system.mem_ctrls0.numRdRetry                        0                       # Number of times read queue was full causing retry
system.mem_ctrls0.numWrRetry                        0                       # Number of times write queue was full causing retry
system.mem_ctrls0.totGap                            0                       # Total gap between requests
system.mem_ctrls0.readPktSize::0                    0                       # Read request sizes (log2)
system.mem_ctrls0.readPktSize::1                    0                       # Read request sizes (log2)
system.mem_ctrls0.readPktSize::2                    0                       # Read request sizes (log2)
system.mem_ctrls0.readPktSize::3                    0                       # Read request sizes (log2)
system.mem_ctrls0.readPktSize::4                    0                       # Read request sizes (log2)
system.mem_ctrls0.readPktSize::5                    0                       # Read request sizes (log2)
system.mem_ctrls0.readPktSize::6                    0                       # Read request sizes (log2)
system.mem_ctrls0.writePktSize::0                   0                       # Write request sizes (log2)
system.mem_ctrls0.writePktSize::1                   0                       # Write request sizes (log2)
system.mem_ctrls0.writePktSize::2                   0                       # Write request sizes (log2)
system.mem_ctrls0.writePktSize::3                   0                       # Write request sizes (log2)
system.mem_ctrls0.writePktSize::4                   0                       # Write request sizes (log2)
system.mem_ctrls0.writePktSize::5                   0                       # Write request sizes (log2)
system.mem_ctrls0.writePktSize::6                   0                       # Write request sizes (log2)
system.mem_ctrls0.rdQLenPdf::0                      0                       # What read queue length does an incoming req see
system.mem_ctrls0.rdQLenPdf::1                      0                       # What read queue length does an incoming req see
system.mem_ctrls0.rdQLenPdf::2                      0                       # What read queue length does an incoming req see
system.mem_ctrls0.rdQLenPdf::3                      0                       # What read queue length does an incoming req see
system.mem_ctrls0.rdQLenPdf::4                      0                       # What read queue length does an incoming req see
system.mem_ctrls0.rdQLenPdf::5                      0                       # What read queue length does an incoming req see
system.mem_ctrls0.rdQLenPdf::6                      0                       # What read queue length does an incoming req see
system.mem_ctrls0.rdQLenPdf::7                      0                       # What read queue length does an incoming req see
system.mem_ctrls0.rdQLenPdf::8                      0                       # What read queue length does an incoming req see
system.mem_ctrls0.rdQLenPdf::9                      0                       # What read queue length does an incoming req see
system.mem_ctrls0.rdQLenPdf::10                     0                       # What read queue length does an incoming req see
system.mem_ctrls0.rdQLenPdf::11                     0                       # What read queue length does an incoming req see
system.mem_ctrls0.rdQLenPdf::12                     0                       # What read queue length does an incoming req see
system.mem_ctrls0.rdQLenPdf::13                     0                       # What read queue length does an incoming req see
system.mem_ctrls0.rdQLenPdf::14                     0                       # What read queue length does an incoming req see
system.mem_ctrls0.rdQLenPdf::15                     0                       # What read queue length does an incoming req see
system.mem_ctrls0.rdQLenPdf::16                     0                       # What read queue length does an incoming req see
system.mem_ctrls0.rdQLenPdf::17                     0                       # What read queue length does an incoming req see
system.mem_ctrls0.rdQLenPdf::18                     0                       # What read queue length does an incoming req see
system.mem_ctrls0.rdQLenPdf::19                     0                       # What read queue length does an incoming req see
system.mem_ctrls0.rdQLenPdf::20                     0                       # What read queue length does an incoming req see
system.mem_ctrls0.rdQLenPdf::21                     0                       # What read queue length does an incoming req see
system.mem_ctrls0.rdQLenPdf::22                     0                       # What read queue length does an incoming req see
system.mem_ctrls0.rdQLenPdf::23                     0                       # What read queue length does an incoming req see
system.mem_ctrls0.rdQLenPdf::24                     0                       # What read queue length does an incoming req see
system.mem_ctrls0.rdQLenPdf::25                     0                       # What read queue length does an incoming req see
system.mem_ctrls0.rdQLenPdf::26                     0                       # What read queue length does an incoming req see
system.mem_ctrls0.rdQLenPdf::27                     0                       # What read queue length does an incoming req see
system.mem_ctrls0.rdQLenPdf::28                     0                       # What read queue length does an incoming req see
system.mem_ctrls0.rdQLenPdf::29                     0                       # What read queue length does an incoming req see
system.mem_ctrls0.rdQLenPdf::30                     0                       # What read queue length does an incoming req see
system.mem_ctrls0.rdQLenPdf::31                     0                       # What read queue length does an incoming req see
system.mem_ctrls0.wrQLenPdf::0                      0                       # What write queue length does an incoming req see
system.mem_ctrls0.wrQLenPdf::1                      0                       # What write queue length does an incoming req see
system.mem_ctrls0.wrQLenPdf::2                      0                       # What write queue length does an incoming req see
system.mem_ctrls0.wrQLenPdf::3                      0                       # What write queue length does an incoming req see
system.mem_ctrls0.wrQLenPdf::4                      0                       # What write queue length does an incoming req see
system.mem_ctrls0.wrQLenPdf::5                      0                       # What write queue length does an incoming req see
system.mem_ctrls0.wrQLenPdf::6                      0                       # What write queue length does an incoming req see
system.mem_ctrls0.wrQLenPdf::7                      0                       # What write queue length does an incoming req see
system.mem_ctrls0.wrQLenPdf::8                      0                       # What write queue length does an incoming req see
system.mem_ctrls0.wrQLenPdf::9                      0                       # What write queue length does an incoming req see
system.mem_ctrls0.wrQLenPdf::10                     0                       # What write queue length does an incoming req see
system.mem_ctrls0.wrQLenPdf::11                     0                       # What write queue length does an incoming req see
system.mem_ctrls0.wrQLenPdf::12                     0                       # What write queue length does an incoming req see
system.mem_ctrls0.wrQLenPdf::13                     0                       # What write queue length does an incoming req see
system.mem_ctrls0.wrQLenPdf::14                     0                       # What write queue length does an incoming req see
system.mem_ctrls0.wrQLenPdf::15                     0                       # What write queue length does an incoming req see
system.mem_ctrls0.wrQLenPdf::16                     0                       # What write queue length does an incoming req see
system.mem_ctrls0.wrQLenPdf::17                     0                       # What write queue length does an incoming req see
system.mem_ctrls0.wrQLenPdf::18                     0                       # What write queue length does an incoming req see
system.mem_ctrls0.wrQLenPdf::19                     0                       # What write queue length does an incoming req see
system.mem_ctrls0.wrQLenPdf::20                     0                       # What write queue length does an incoming req see
system.mem_ctrls0.wrQLenPdf::21                     0                       # What write queue length does an incoming req see
system.mem_ctrls0.wrQLenPdf::22                     0                       # What write queue length does an incoming req see
system.mem_ctrls0.wrQLenPdf::23                     0                       # What write queue length does an incoming req see
system.mem_ctrls0.wrQLenPdf::24                     0                       # What write queue length does an incoming req see
system.mem_ctrls0.wrQLenPdf::25                     0                       # What write queue length does an incoming req see
system.mem_ctrls0.wrQLenPdf::26                     0                       # What write queue length does an incoming req see
system.mem_ctrls0.wrQLenPdf::27                     0                       # What write queue length does an incoming req see
system.mem_ctrls0.wrQLenPdf::28                     0                       # What write queue length does an incoming req see
system.mem_ctrls0.wrQLenPdf::29                     0                       # What write queue length does an incoming req see
system.mem_ctrls0.wrQLenPdf::30                     0                       # What write queue length does an incoming req see
system.mem_ctrls0.wrQLenPdf::31                     0                       # What write queue length does an incoming req see
system.mem_ctrls0.wrQLenPdf::32                     0                       # What write queue length does an incoming req see
system.mem_ctrls0.wrQLenPdf::33                     0                       # What write queue length does an incoming req see
system.mem_ctrls0.wrQLenPdf::34                     0                       # What write queue length does an incoming req see
system.mem_ctrls0.wrQLenPdf::35                     0                       # What write queue length does an incoming req see
system.mem_ctrls0.wrQLenPdf::36                     0                       # What write queue length does an incoming req see
system.mem_ctrls0.wrQLenPdf::37                     0                       # What write queue length does an incoming req see
system.mem_ctrls0.wrQLenPdf::38                     0                       # What write queue length does an incoming req see
system.mem_ctrls0.wrQLenPdf::39                     0                       # What write queue length does an incoming req see
system.mem_ctrls0.wrQLenPdf::40                     0                       # What write queue length does an incoming req see
system.mem_ctrls0.wrQLenPdf::41                     0                       # What write queue length does an incoming req see
system.mem_ctrls0.wrQLenPdf::42                     0                       # What write queue length does an incoming req see
system.mem_ctrls0.wrQLenPdf::43                     0                       # What write queue length does an incoming req see
system.mem_ctrls0.wrQLenPdf::44                     0                       # What write queue length does an incoming req see
system.mem_ctrls0.wrQLenPdf::45                     0                       # What write queue length does an incoming req see
system.mem_ctrls0.wrQLenPdf::46                     0                       # What write queue length does an incoming req see
system.mem_ctrls0.wrQLenPdf::47                     0                       # What write queue length does an incoming req see
system.mem_ctrls0.wrQLenPdf::48                     0                       # What write queue length does an incoming req see
system.mem_ctrls0.wrQLenPdf::49                     0                       # What write queue length does an incoming req see
system.mem_ctrls0.wrQLenPdf::50                     0                       # What write queue length does an incoming req see
system.mem_ctrls0.wrQLenPdf::51                     0                       # What write queue length does an incoming req see
system.mem_ctrls0.wrQLenPdf::52                     0                       # What write queue length does an incoming req see
system.mem_ctrls0.wrQLenPdf::53                     0                       # What write queue length does an incoming req see
system.mem_ctrls0.wrQLenPdf::54                     0                       # What write queue length does an incoming req see
system.mem_ctrls0.wrQLenPdf::55                     0                       # What write queue length does an incoming req see
system.mem_ctrls0.wrQLenPdf::56                     0                       # What write queue length does an incoming req see
system.mem_ctrls0.wrQLenPdf::57                     0                       # What write queue length does an incoming req see
system.mem_ctrls0.wrQLenPdf::58                     0                       # What write queue length does an incoming req see
system.mem_ctrls0.wrQLenPdf::59                     0                       # What write queue length does an incoming req see
system.mem_ctrls0.wrQLenPdf::60                     0                       # What write queue length does an incoming req see
system.mem_ctrls0.wrQLenPdf::61                     0                       # What write queue length does an incoming req see
system.mem_ctrls0.wrQLenPdf::62                     0                       # What write queue length does an incoming req see
system.mem_ctrls0.wrQLenPdf::63                     0                       # What write queue length does an incoming req see
system.mem_ctrls0.totQLat                           0                       # Total ticks spent queuing
system.mem_ctrls0.totMemAccLat                      0                       # Total ticks spent from burst creation until serviced by the DRAM
system.mem_ctrls0.totBusLat                         0                       # Total ticks spent in databus transfers
system.mem_ctrls0.avgQLat                         nan                       # Average queueing delay per DRAM burst
system.mem_ctrls0.avgBusLat                       nan                       # Average bus latency per DRAM burst
system.mem_ctrls0.avgMemAccLat                    nan                       # Average memory access latency per DRAM burst
system.mem_ctrls0.avgRdBW                        0.00                       # Average DRAM read bandwidth in MiByte/s
system.mem_ctrls0.avgWrBW                        0.00                       # Average achieved write bandwidth in MiByte/s
system.mem_ctrls0.avgRdBWSys                     0.00                       # Average system read bandwidth in MiByte/s
system.mem_ctrls0.avgWrBWSys                     0.00                       # Average system write bandwidth in MiByte/s
system.mem_ctrls0.peakBW                     12800.00                       # Theoretical peak bandwidth in MiByte/s
system.mem_ctrls0.busUtil                        0.00                       # Data bus utilization in percentage
system.mem_ctrls0.busUtilRead                    0.00                       # Data bus utilization in percentage for reads
system.mem_ctrls0.busUtilWrite                   0.00                       # Data bus utilization in percentage for writes
system.mem_ctrls0.avgRdQLen                      0.00                       # Average read queue length when enqueuing
system.mem_ctrls0.avgWrQLen                      0.00                       # Average write queue length when enqueuing
system.mem_ctrls0.readRowHits                       0                       # Number of row buffer hits during reads
system.mem_ctrls0.writeRowHits                      0                       # Number of row buffer hits during writes
system.mem_ctrls0.readRowHitRate                  nan                       # Row buffer hit rate for reads
system.mem_ctrls0.writeRowHitRate                 nan                       # Row buffer hit rate for writes
system.mem_ctrls0.avgGap                          nan                       # Average gap between requests
system.mem_ctrls0.pageHitRate                     nan                       # Row buffer hit rate, read and write combined
system.mem_ctrls0_0.actEnergy                       0                       # Energy for activate commands per rank (pJ)
system.mem_ctrls0_0.preEnergy                       0                       # Energy for precharge commands per rank (pJ)
system.mem_ctrls0_0.readEnergy                      0                       # Energy for read commands per rank (pJ)
system.mem_ctrls0_0.writeEnergy                     0                       # Energy for write commands per rank (pJ)
system.mem_ctrls0_0.refreshEnergy                   0                       # Energy for refresh commands per rank (pJ)
system.mem_ctrls0_0.actBackEnergy                   0                       # Energy for active background per rank (pJ)
system.mem_ctrls0_0.preBackEnergy                   0                       # Energy for precharge background per rank (pJ)
system.mem_ctrls0_0.totalEnergy                     0                       # Total energy per rank (pJ)
system.mem_ctrls0_0.averagePower                    0                       # Core power per rank (mW)
system.mem_ctrls0_0.memoryStateTime::IDLE            0                       # Time in different power states
system.mem_ctrls0_0.memoryStateTime::REF            0                       # Time in different power states
system.mem_ctrls0_0.memoryStateTime::PRE_PDN            0                       # Time in different power states
system.mem_ctrls0_0.memoryStateTime::ACT            0                       # Time in different power states
system.mem_ctrls0_0.memoryStateTime::ACT_PDN            0                       # Time in different power states
system.mem_ctrls0_1.actEnergy                       0                       # Energy for activate commands per rank (pJ)
system.mem_ctrls0_1.preEnergy                       0                       # Energy for precharge commands per rank (pJ)
system.mem_ctrls0_1.readEnergy                      0                       # Energy for read commands per rank (pJ)
system.mem_ctrls0_1.writeEnergy                     0                       # Energy for write commands per rank (pJ)
system.mem_ctrls0_1.refreshEnergy                   0                       # Energy for refresh commands per rank (pJ)
system.mem_ctrls0_1.actBackEnergy                   0                       # Energy for active background per rank (pJ)
system.mem_ctrls0_1.preBackEnergy                   0                       # Energy for precharge background per rank (pJ)
system.mem_ctrls0_1.totalEnergy                     0                       # Total energy per rank (pJ)
system.mem_ctrls0_1.averagePower                    0                       # Core power per rank (mW)
system.mem_ctrls0_1.memoryStateTime::IDLE            0                       # Time in different power states
system.mem_ctrls0_1.memoryStateTime::REF            0                       # Time in different power states
system.mem_ctrls0_1.memoryStateTime::PRE_PDN            0                       # Time in different power states
system.mem_ctrls0_1.memoryStateTime::ACT            0                       # Time in different power states
system.mem_ctrls0_1.memoryStateTime::ACT_PDN            0                       # Time in different power states
system.mem_ctrls1.bytes_read::switch_cpus0.inst         9344                       # Number of bytes read from this memory
system.mem_ctrls1.bytes_read::switch_cpus0.data       127872                       # Number of bytes read from this memory
system.mem_ctrls1.bytes_read::switch_cpus1.inst          896                       # Number of bytes read from this memory
system.mem_ctrls1.bytes_read::switch_cpus1.data        40704                       # Number of bytes read from this memory
system.mem_ctrls1.bytes_read::switch_cpus2.inst         2176                       # Number of bytes read from this memory
system.mem_ctrls1.bytes_read::switch_cpus2.data       407936                       # Number of bytes read from this memory
system.mem_ctrls1.bytes_read::total            588928                       # Number of bytes read from this memory
system.mem_ctrls1.bytes_inst_read::switch_cpus0.inst         9344                       # Number of instructions bytes read from this memory
system.mem_ctrls1.bytes_inst_read::switch_cpus1.inst          896                       # Number of instructions bytes read from this memory
system.mem_ctrls1.bytes_inst_read::switch_cpus2.inst         2176                       # Number of instructions bytes read from this memory
system.mem_ctrls1.bytes_inst_read::total        12416                       # Number of instructions bytes read from this memory
system.mem_ctrls1.bytes_written::writebacks       413568                       # Number of bytes written to this memory
system.mem_ctrls1.bytes_written::total         413568                       # Number of bytes written to this memory
system.mem_ctrls1.num_reads::switch_cpus0.inst          146                       # Number of read requests responded to by this memory
system.mem_ctrls1.num_reads::switch_cpus0.data         1998                       # Number of read requests responded to by this memory
system.mem_ctrls1.num_reads::switch_cpus1.inst           14                       # Number of read requests responded to by this memory
system.mem_ctrls1.num_reads::switch_cpus1.data          636                       # Number of read requests responded to by this memory
system.mem_ctrls1.num_reads::switch_cpus2.inst           34                       # Number of read requests responded to by this memory
system.mem_ctrls1.num_reads::switch_cpus2.data         6374                       # Number of read requests responded to by this memory
system.mem_ctrls1.num_reads::total               9202                       # Number of read requests responded to by this memory
system.mem_ctrls1.num_writes::writebacks         6462                       # Number of write requests responded to by this memory
system.mem_ctrls1.num_writes::total              6462                       # Number of write requests responded to by this memory
system.mem_ctrls1.bw_read::switch_cpus0.inst     26285512                       # Total read bandwidth from this memory (bytes/s)
system.mem_ctrls1.bw_read::switch_cpus0.data    359715428                       # Total read bandwidth from this memory (bytes/s)
system.mem_ctrls1.bw_read::switch_cpus1.inst      2520529                       # Total read bandwidth from this memory (bytes/s)
system.mem_ctrls1.bw_read::switch_cpus1.data    114504010                       # Total read bandwidth from this memory (bytes/s)
system.mem_ctrls1.bw_read::switch_cpus2.inst      6121284                       # Total read bandwidth from this memory (bytes/s)
system.mem_ctrls1.bw_read::switch_cpus2.data   1147560629                       # Total read bandwidth from this memory (bytes/s)
system.mem_ctrls1.bw_read::total           1656707391                       # Total read bandwidth from this memory (bytes/s)
system.mem_ctrls1.bw_inst_read::switch_cpus0.inst     26285512                       # Instruction read bandwidth from this memory (bytes/s)
system.mem_ctrls1.bw_inst_read::switch_cpus1.inst      2520529                       # Instruction read bandwidth from this memory (bytes/s)
system.mem_ctrls1.bw_inst_read::switch_cpus2.inst      6121284                       # Instruction read bandwidth from this memory (bytes/s)
system.mem_ctrls1.bw_inst_read::total        34927324                       # Instruction read bandwidth from this memory (bytes/s)
system.mem_ctrls1.bw_write::writebacks     1163403951                       # Write bandwidth from this memory (bytes/s)
system.mem_ctrls1.bw_write::total          1163403951                       # Write bandwidth from this memory (bytes/s)
system.mem_ctrls1.bw_total::writebacks     1163403951                       # Total bandwidth to/from this memory (bytes/s)
system.mem_ctrls1.bw_total::switch_cpus0.inst     26285512                       # Total bandwidth to/from this memory (bytes/s)
system.mem_ctrls1.bw_total::switch_cpus0.data    359715428                       # Total bandwidth to/from this memory (bytes/s)
system.mem_ctrls1.bw_total::switch_cpus1.inst      2520529                       # Total bandwidth to/from this memory (bytes/s)
system.mem_ctrls1.bw_total::switch_cpus1.data    114504010                       # Total bandwidth to/from this memory (bytes/s)
system.mem_ctrls1.bw_total::switch_cpus2.inst      6121284                       # Total bandwidth to/from this memory (bytes/s)
system.mem_ctrls1.bw_total::switch_cpus2.data   1147560629                       # Total bandwidth to/from this memory (bytes/s)
system.mem_ctrls1.bw_total::total          2820111342                       # Total bandwidth to/from this memory (bytes/s)
system.mem_ctrls1.readReqs                          0                       # Number of read requests accepted
system.mem_ctrls1.writeReqs                         0                       # Number of write requests accepted
system.mem_ctrls1.readBursts                        0                       # Number of DRAM read bursts, including those serviced by the write queue
system.mem_ctrls1.writeBursts                       0                       # Number of DRAM write bursts, including those merged in the write queue
system.mem_ctrls1.bytesReadDRAM                     0                       # Total number of bytes read from DRAM
system.mem_ctrls1.bytesReadWrQ                      0                       # Total number of bytes read from write queue
system.mem_ctrls1.bytesWritten                      0                       # Total number of bytes written to DRAM
system.mem_ctrls1.bytesReadSys                      0                       # Total read bytes from the system interface side
system.mem_ctrls1.bytesWrittenSys                   0                       # Total written bytes from the system interface side
system.mem_ctrls1.servicedByWrQ                     0                       # Number of DRAM read bursts serviced by the write queue
system.mem_ctrls1.mergedWrBursts                    0                       # Number of DRAM write bursts merged with an existing one
system.mem_ctrls1.neitherReadNorWriteReqs            0                       # Number of requests that are neither read nor write
system.mem_ctrls1.perBankRdBursts::0                0                       # Per bank write bursts
system.mem_ctrls1.perBankRdBursts::1                0                       # Per bank write bursts
system.mem_ctrls1.perBankRdBursts::2                0                       # Per bank write bursts
system.mem_ctrls1.perBankRdBursts::3                0                       # Per bank write bursts
system.mem_ctrls1.perBankRdBursts::4                0                       # Per bank write bursts
system.mem_ctrls1.perBankRdBursts::5                0                       # Per bank write bursts
system.mem_ctrls1.perBankRdBursts::6                0                       # Per bank write bursts
system.mem_ctrls1.perBankRdBursts::7                0                       # Per bank write bursts
system.mem_ctrls1.perBankRdBursts::8                0                       # Per bank write bursts
system.mem_ctrls1.perBankRdBursts::9                0                       # Per bank write bursts
system.mem_ctrls1.perBankRdBursts::10               0                       # Per bank write bursts
system.mem_ctrls1.perBankRdBursts::11               0                       # Per bank write bursts
system.mem_ctrls1.perBankRdBursts::12               0                       # Per bank write bursts
system.mem_ctrls1.perBankRdBursts::13               0                       # Per bank write bursts
system.mem_ctrls1.perBankRdBursts::14               0                       # Per bank write bursts
system.mem_ctrls1.perBankRdBursts::15               0                       # Per bank write bursts
system.mem_ctrls1.perBankWrBursts::0                0                       # Per bank write bursts
system.mem_ctrls1.perBankWrBursts::1                0                       # Per bank write bursts
system.mem_ctrls1.perBankWrBursts::2                0                       # Per bank write bursts
system.mem_ctrls1.perBankWrBursts::3                0                       # Per bank write bursts
system.mem_ctrls1.perBankWrBursts::4                0                       # Per bank write bursts
system.mem_ctrls1.perBankWrBursts::5                0                       # Per bank write bursts
system.mem_ctrls1.perBankWrBursts::6                0                       # Per bank write bursts
system.mem_ctrls1.perBankWrBursts::7                0                       # Per bank write bursts
system.mem_ctrls1.perBankWrBursts::8                0                       # Per bank write bursts
system.mem_ctrls1.perBankWrBursts::9                0                       # Per bank write bursts
system.mem_ctrls1.perBankWrBursts::10               0                       # Per bank write bursts
system.mem_ctrls1.perBankWrBursts::11               0                       # Per bank write bursts
system.mem_ctrls1.perBankWrBursts::12               0                       # Per bank write bursts
system.mem_ctrls1.perBankWrBursts::13               0                       # Per bank write bursts
system.mem_ctrls1.perBankWrBursts::14               0                       # Per bank write bursts
system.mem_ctrls1.perBankWrBursts::15               0                       # Per bank write bursts
system.mem_ctrls1.numRdRetry                        0                       # Number of times read queue was full causing retry
system.mem_ctrls1.numWrRetry                        0                       # Number of times write queue was full causing retry
system.mem_ctrls1.totGap                            0                       # Total gap between requests
system.mem_ctrls1.readPktSize::0                    0                       # Read request sizes (log2)
system.mem_ctrls1.readPktSize::1                    0                       # Read request sizes (log2)
system.mem_ctrls1.readPktSize::2                    0                       # Read request sizes (log2)
system.mem_ctrls1.readPktSize::3                    0                       # Read request sizes (log2)
system.mem_ctrls1.readPktSize::4                    0                       # Read request sizes (log2)
system.mem_ctrls1.readPktSize::5                    0                       # Read request sizes (log2)
system.mem_ctrls1.readPktSize::6                    0                       # Read request sizes (log2)
system.mem_ctrls1.writePktSize::0                   0                       # Write request sizes (log2)
system.mem_ctrls1.writePktSize::1                   0                       # Write request sizes (log2)
system.mem_ctrls1.writePktSize::2                   0                       # Write request sizes (log2)
system.mem_ctrls1.writePktSize::3                   0                       # Write request sizes (log2)
system.mem_ctrls1.writePktSize::4                   0                       # Write request sizes (log2)
system.mem_ctrls1.writePktSize::5                   0                       # Write request sizes (log2)
system.mem_ctrls1.writePktSize::6                   0                       # Write request sizes (log2)
system.mem_ctrls1.rdQLenPdf::0                      0                       # What read queue length does an incoming req see
system.mem_ctrls1.rdQLenPdf::1                      0                       # What read queue length does an incoming req see
system.mem_ctrls1.rdQLenPdf::2                      0                       # What read queue length does an incoming req see
system.mem_ctrls1.rdQLenPdf::3                      0                       # What read queue length does an incoming req see
system.mem_ctrls1.rdQLenPdf::4                      0                       # What read queue length does an incoming req see
system.mem_ctrls1.rdQLenPdf::5                      0                       # What read queue length does an incoming req see
system.mem_ctrls1.rdQLenPdf::6                      0                       # What read queue length does an incoming req see
system.mem_ctrls1.rdQLenPdf::7                      0                       # What read queue length does an incoming req see
system.mem_ctrls1.rdQLenPdf::8                      0                       # What read queue length does an incoming req see
system.mem_ctrls1.rdQLenPdf::9                      0                       # What read queue length does an incoming req see
system.mem_ctrls1.rdQLenPdf::10                     0                       # What read queue length does an incoming req see
system.mem_ctrls1.rdQLenPdf::11                     0                       # What read queue length does an incoming req see
system.mem_ctrls1.rdQLenPdf::12                     0                       # What read queue length does an incoming req see
system.mem_ctrls1.rdQLenPdf::13                     0                       # What read queue length does an incoming req see
system.mem_ctrls1.rdQLenPdf::14                     0                       # What read queue length does an incoming req see
system.mem_ctrls1.rdQLenPdf::15                     0                       # What read queue length does an incoming req see
system.mem_ctrls1.rdQLenPdf::16                     0                       # What read queue length does an incoming req see
system.mem_ctrls1.rdQLenPdf::17                     0                       # What read queue length does an incoming req see
system.mem_ctrls1.rdQLenPdf::18                     0                       # What read queue length does an incoming req see
system.mem_ctrls1.rdQLenPdf::19                     0                       # What read queue length does an incoming req see
system.mem_ctrls1.rdQLenPdf::20                     0                       # What read queue length does an incoming req see
system.mem_ctrls1.rdQLenPdf::21                     0                       # What read queue length does an incoming req see
system.mem_ctrls1.rdQLenPdf::22                     0                       # What read queue length does an incoming req see
system.mem_ctrls1.rdQLenPdf::23                     0                       # What read queue length does an incoming req see
system.mem_ctrls1.rdQLenPdf::24                     0                       # What read queue length does an incoming req see
system.mem_ctrls1.rdQLenPdf::25                     0                       # What read queue length does an incoming req see
system.mem_ctrls1.rdQLenPdf::26                     0                       # What read queue length does an incoming req see
system.mem_ctrls1.rdQLenPdf::27                     0                       # What read queue length does an incoming req see
system.mem_ctrls1.rdQLenPdf::28                     0                       # What read queue length does an incoming req see
system.mem_ctrls1.rdQLenPdf::29                     0                       # What read queue length does an incoming req see
system.mem_ctrls1.rdQLenPdf::30                     0                       # What read queue length does an incoming req see
system.mem_ctrls1.rdQLenPdf::31                     0                       # What read queue length does an incoming req see
system.mem_ctrls1.wrQLenPdf::0                      0                       # What write queue length does an incoming req see
system.mem_ctrls1.wrQLenPdf::1                      0                       # What write queue length does an incoming req see
system.mem_ctrls1.wrQLenPdf::2                      0                       # What write queue length does an incoming req see
system.mem_ctrls1.wrQLenPdf::3                      0                       # What write queue length does an incoming req see
system.mem_ctrls1.wrQLenPdf::4                      0                       # What write queue length does an incoming req see
system.mem_ctrls1.wrQLenPdf::5                      0                       # What write queue length does an incoming req see
system.mem_ctrls1.wrQLenPdf::6                      0                       # What write queue length does an incoming req see
system.mem_ctrls1.wrQLenPdf::7                      0                       # What write queue length does an incoming req see
system.mem_ctrls1.wrQLenPdf::8                      0                       # What write queue length does an incoming req see
system.mem_ctrls1.wrQLenPdf::9                      0                       # What write queue length does an incoming req see
system.mem_ctrls1.wrQLenPdf::10                     0                       # What write queue length does an incoming req see
system.mem_ctrls1.wrQLenPdf::11                     0                       # What write queue length does an incoming req see
system.mem_ctrls1.wrQLenPdf::12                     0                       # What write queue length does an incoming req see
system.mem_ctrls1.wrQLenPdf::13                     0                       # What write queue length does an incoming req see
system.mem_ctrls1.wrQLenPdf::14                     0                       # What write queue length does an incoming req see
system.mem_ctrls1.wrQLenPdf::15                     0                       # What write queue length does an incoming req see
system.mem_ctrls1.wrQLenPdf::16                     0                       # What write queue length does an incoming req see
system.mem_ctrls1.wrQLenPdf::17                     0                       # What write queue length does an incoming req see
system.mem_ctrls1.wrQLenPdf::18                     0                       # What write queue length does an incoming req see
system.mem_ctrls1.wrQLenPdf::19                     0                       # What write queue length does an incoming req see
system.mem_ctrls1.wrQLenPdf::20                     0                       # What write queue length does an incoming req see
system.mem_ctrls1.wrQLenPdf::21                     0                       # What write queue length does an incoming req see
system.mem_ctrls1.wrQLenPdf::22                     0                       # What write queue length does an incoming req see
system.mem_ctrls1.wrQLenPdf::23                     0                       # What write queue length does an incoming req see
system.mem_ctrls1.wrQLenPdf::24                     0                       # What write queue length does an incoming req see
system.mem_ctrls1.wrQLenPdf::25                     0                       # What write queue length does an incoming req see
system.mem_ctrls1.wrQLenPdf::26                     0                       # What write queue length does an incoming req see
system.mem_ctrls1.wrQLenPdf::27                     0                       # What write queue length does an incoming req see
system.mem_ctrls1.wrQLenPdf::28                     0                       # What write queue length does an incoming req see
system.mem_ctrls1.wrQLenPdf::29                     0                       # What write queue length does an incoming req see
system.mem_ctrls1.wrQLenPdf::30                     0                       # What write queue length does an incoming req see
system.mem_ctrls1.wrQLenPdf::31                     0                       # What write queue length does an incoming req see
system.mem_ctrls1.wrQLenPdf::32                     0                       # What write queue length does an incoming req see
system.mem_ctrls1.wrQLenPdf::33                     0                       # What write queue length does an incoming req see
system.mem_ctrls1.wrQLenPdf::34                     0                       # What write queue length does an incoming req see
system.mem_ctrls1.wrQLenPdf::35                     0                       # What write queue length does an incoming req see
system.mem_ctrls1.wrQLenPdf::36                     0                       # What write queue length does an incoming req see
system.mem_ctrls1.wrQLenPdf::37                     0                       # What write queue length does an incoming req see
system.mem_ctrls1.wrQLenPdf::38                     0                       # What write queue length does an incoming req see
system.mem_ctrls1.wrQLenPdf::39                     0                       # What write queue length does an incoming req see
system.mem_ctrls1.wrQLenPdf::40                     0                       # What write queue length does an incoming req see
system.mem_ctrls1.wrQLenPdf::41                     0                       # What write queue length does an incoming req see
system.mem_ctrls1.wrQLenPdf::42                     0                       # What write queue length does an incoming req see
system.mem_ctrls1.wrQLenPdf::43                     0                       # What write queue length does an incoming req see
system.mem_ctrls1.wrQLenPdf::44                     0                       # What write queue length does an incoming req see
system.mem_ctrls1.wrQLenPdf::45                     0                       # What write queue length does an incoming req see
system.mem_ctrls1.wrQLenPdf::46                     0                       # What write queue length does an incoming req see
system.mem_ctrls1.wrQLenPdf::47                     0                       # What write queue length does an incoming req see
system.mem_ctrls1.wrQLenPdf::48                     0                       # What write queue length does an incoming req see
system.mem_ctrls1.wrQLenPdf::49                     0                       # What write queue length does an incoming req see
system.mem_ctrls1.wrQLenPdf::50                     0                       # What write queue length does an incoming req see
system.mem_ctrls1.wrQLenPdf::51                     0                       # What write queue length does an incoming req see
system.mem_ctrls1.wrQLenPdf::52                     0                       # What write queue length does an incoming req see
system.mem_ctrls1.wrQLenPdf::53                     0                       # What write queue length does an incoming req see
system.mem_ctrls1.wrQLenPdf::54                     0                       # What write queue length does an incoming req see
system.mem_ctrls1.wrQLenPdf::55                     0                       # What write queue length does an incoming req see
system.mem_ctrls1.wrQLenPdf::56                     0                       # What write queue length does an incoming req see
system.mem_ctrls1.wrQLenPdf::57                     0                       # What write queue length does an incoming req see
system.mem_ctrls1.wrQLenPdf::58                     0                       # What write queue length does an incoming req see
system.mem_ctrls1.wrQLenPdf::59                     0                       # What write queue length does an incoming req see
system.mem_ctrls1.wrQLenPdf::60                     0                       # What write queue length does an incoming req see
system.mem_ctrls1.wrQLenPdf::61                     0                       # What write queue length does an incoming req see
system.mem_ctrls1.wrQLenPdf::62                     0                       # What write queue length does an incoming req see
system.mem_ctrls1.wrQLenPdf::63                     0                       # What write queue length does an incoming req see
system.mem_ctrls1.totQLat                           0                       # Total ticks spent queuing
system.mem_ctrls1.totMemAccLat                      0                       # Total ticks spent from burst creation until serviced by the DRAM
system.mem_ctrls1.totBusLat                         0                       # Total ticks spent in databus transfers
system.mem_ctrls1.avgQLat                         nan                       # Average queueing delay per DRAM burst
system.mem_ctrls1.avgBusLat                       nan                       # Average bus latency per DRAM burst
system.mem_ctrls1.avgMemAccLat                    nan                       # Average memory access latency per DRAM burst
system.mem_ctrls1.avgRdBW                        0.00                       # Average DRAM read bandwidth in MiByte/s
system.mem_ctrls1.avgWrBW                        0.00                       # Average achieved write bandwidth in MiByte/s
system.mem_ctrls1.avgRdBWSys                     0.00                       # Average system read bandwidth in MiByte/s
system.mem_ctrls1.avgWrBWSys                     0.00                       # Average system write bandwidth in MiByte/s
system.mem_ctrls1.peakBW                     12800.00                       # Theoretical peak bandwidth in MiByte/s
system.mem_ctrls1.busUtil                        0.00                       # Data bus utilization in percentage
system.mem_ctrls1.busUtilRead                    0.00                       # Data bus utilization in percentage for reads
system.mem_ctrls1.busUtilWrite                   0.00                       # Data bus utilization in percentage for writes
system.mem_ctrls1.avgRdQLen                      0.00                       # Average read queue length when enqueuing
system.mem_ctrls1.avgWrQLen                      0.00                       # Average write queue length when enqueuing
system.mem_ctrls1.readRowHits                       0                       # Number of row buffer hits during reads
system.mem_ctrls1.writeRowHits                      0                       # Number of row buffer hits during writes
system.mem_ctrls1.readRowHitRate                  nan                       # Row buffer hit rate for reads
system.mem_ctrls1.writeRowHitRate                 nan                       # Row buffer hit rate for writes
system.mem_ctrls1.avgGap                          nan                       # Average gap between requests
system.mem_ctrls1.pageHitRate                     nan                       # Row buffer hit rate, read and write combined
system.mem_ctrls1_0.actEnergy                       0                       # Energy for activate commands per rank (pJ)
system.mem_ctrls1_0.preEnergy                       0                       # Energy for precharge commands per rank (pJ)
system.mem_ctrls1_0.readEnergy                      0                       # Energy for read commands per rank (pJ)
system.mem_ctrls1_0.writeEnergy                     0                       # Energy for write commands per rank (pJ)
system.mem_ctrls1_0.refreshEnergy                   0                       # Energy for refresh commands per rank (pJ)
system.mem_ctrls1_0.actBackEnergy                   0                       # Energy for active background per rank (pJ)
system.mem_ctrls1_0.preBackEnergy                   0                       # Energy for precharge background per rank (pJ)
system.mem_ctrls1_0.totalEnergy                     0                       # Total energy per rank (pJ)
system.mem_ctrls1_0.averagePower                    0                       # Core power per rank (mW)
system.mem_ctrls1_0.memoryStateTime::IDLE            0                       # Time in different power states
system.mem_ctrls1_0.memoryStateTime::REF            0                       # Time in different power states
system.mem_ctrls1_0.memoryStateTime::PRE_PDN            0                       # Time in different power states
system.mem_ctrls1_0.memoryStateTime::ACT            0                       # Time in different power states
system.mem_ctrls1_0.memoryStateTime::ACT_PDN            0                       # Time in different power states
system.mem_ctrls1_1.actEnergy                       0                       # Energy for activate commands per rank (pJ)
system.mem_ctrls1_1.preEnergy                       0                       # Energy for precharge commands per rank (pJ)
system.mem_ctrls1_1.readEnergy                      0                       # Energy for read commands per rank (pJ)
system.mem_ctrls1_1.writeEnergy                     0                       # Energy for write commands per rank (pJ)
system.mem_ctrls1_1.refreshEnergy                   0                       # Energy for refresh commands per rank (pJ)
system.mem_ctrls1_1.actBackEnergy                   0                       # Energy for active background per rank (pJ)
system.mem_ctrls1_1.preBackEnergy                   0                       # Energy for precharge background per rank (pJ)
system.mem_ctrls1_1.totalEnergy                     0                       # Total energy per rank (pJ)
system.mem_ctrls1_1.averagePower                    0                       # Core power per rank (mW)
system.mem_ctrls1_1.memoryStateTime::IDLE            0                       # Time in different power states
system.mem_ctrls1_1.memoryStateTime::REF            0                       # Time in different power states
system.mem_ctrls1_1.memoryStateTime::PRE_PDN            0                       # Time in different power states
system.mem_ctrls1_1.memoryStateTime::ACT            0                       # Time in different power states
system.mem_ctrls1_1.memoryStateTime::ACT_PDN            0                       # Time in different power states
system.cpu_voltage_domain.voltage                   1                       # Voltage in Volts
system.cpu_clk_domain.clock                       500                       # Clock period in ticks
system.cpu0.dtb.fetch_hits                          0                       # ITB hits
system.cpu0.dtb.fetch_misses                        0                       # ITB misses
system.cpu0.dtb.fetch_acv                           0                       # ITB acv
system.cpu0.dtb.fetch_accesses                      0                       # ITB accesses
system.cpu0.dtb.read_hits                           0                       # DTB read hits
system.cpu0.dtb.read_misses                         0                       # DTB read misses
system.cpu0.dtb.read_acv                            0                       # DTB read access violations
system.cpu0.dtb.read_accesses                       0                       # DTB read accesses
system.cpu0.dtb.write_hits                          0                       # DTB write hits
system.cpu0.dtb.write_misses                        0                       # DTB write misses
system.cpu0.dtb.write_acv                           0                       # DTB write access violations
system.cpu0.dtb.write_accesses                      0                       # DTB write accesses
system.cpu0.dtb.data_hits                           0                       # DTB hits
system.cpu0.dtb.data_misses                         0                       # DTB misses
system.cpu0.dtb.data_acv                            0                       # DTB access violations
system.cpu0.dtb.data_accesses                       0                       # DTB accesses
system.cpu0.itb.fetch_hits                          0                       # ITB hits
system.cpu0.itb.fetch_misses                        0                       # ITB misses
system.cpu0.itb.fetch_acv                           0                       # ITB acv
system.cpu0.itb.fetch_accesses                      0                       # ITB accesses
system.cpu0.itb.read_hits                           0                       # DTB read hits
system.cpu0.itb.read_misses                         0                       # DTB read misses
system.cpu0.itb.read_acv                            0                       # DTB read access violations
system.cpu0.itb.read_accesses                       0                       # DTB read accesses
system.cpu0.itb.write_hits                          0                       # DTB write hits
system.cpu0.itb.write_misses                        0                       # DTB write misses
system.cpu0.itb.write_acv                           0                       # DTB write access violations
system.cpu0.itb.write_accesses                      0                       # DTB write accesses
system.cpu0.itb.data_hits                           0                       # DTB hits
system.cpu0.itb.data_misses                         0                       # DTB misses
system.cpu0.itb.data_acv                            0                       # DTB access violations
system.cpu0.itb.data_accesses                       0                       # DTB accesses
system.cpu0.numCycles                               0                       # number of cpu cycles simulated
system.cpu0.numWorkItemsStarted                     0                       # number of work items this cpu started
system.cpu0.numWorkItemsCompleted                   0                       # number of work items this cpu completed
system.cpu0.kern.inst.arm                           0                       # number of arm instructions executed
system.cpu0.kern.inst.quiesce                       2                       # number of quiesce instructions executed
system.cpu0.kern.inst.hwrei                       566                       # number of hwrei instructions executed
system.cpu0.kern.ipl_count::0                     160     47.62%     47.62% # number of times we switched to this ipl
system.cpu0.kern.ipl_count::30                      1      0.30%     47.92% # number of times we switched to this ipl
system.cpu0.kern.ipl_count::31                    175     52.08%    100.00% # number of times we switched to this ipl
system.cpu0.kern.ipl_count::total                 336                       # number of times we switched to this ipl
system.cpu0.kern.ipl_good::0                      160     50.00%     50.00% # number of times we switched to this ipl from a different ipl
system.cpu0.kern.ipl_good::30                       1      0.31%     50.31% # number of times we switched to this ipl from a different ipl
system.cpu0.kern.ipl_good::31                     159     49.69%    100.00% # number of times we switched to this ipl from a different ipl
system.cpu0.kern.ipl_good::total                  320                       # number of times we switched to this ipl from a different ipl
system.cpu0.kern.ipl_ticks::0               137757500     92.12%     92.12% # number of cycles we spent at this ipl
system.cpu0.kern.ipl_ticks::30                 164500      0.11%     92.23% # number of cycles we spent at this ipl
system.cpu0.kern.ipl_ticks::31               11617000      7.77%    100.00% # number of cycles we spent at this ipl
system.cpu0.kern.ipl_ticks::total           149539000                       # number of cycles we spent at this ipl
system.cpu0.kern.ipl_used::0                        1                       # fraction of swpipl calls that actually changed the ipl
system.cpu0.kern.ipl_used::30                       1                       # fraction of swpipl calls that actually changed the ipl
system.cpu0.kern.ipl_used::31                0.908571                       # fraction of swpipl calls that actually changed the ipl
system.cpu0.kern.ipl_used::total             0.952381                       # fraction of swpipl calls that actually changed the ipl
system.cpu0.kern.syscall::2                         1     33.33%     33.33% # number of syscalls executed
system.cpu0.kern.syscall::3                         1     33.33%     66.67% # number of syscalls executed
system.cpu0.kern.syscall::19                        1     33.33%    100.00% # number of syscalls executed
system.cpu0.kern.syscall::total                     3                       # number of syscalls executed
system.cpu0.kern.callpal::wripir                    1      0.28%      0.28% # number of callpals executed
system.cpu0.kern.callpal::swpctx                   12      3.34%      3.62% # number of callpals executed
system.cpu0.kern.callpal::tbi                       1      0.28%      3.90% # number of callpals executed
system.cpu0.kern.callpal::swpipl                  317     88.30%     92.20% # number of callpals executed
system.cpu0.kern.callpal::rdusp                     1      0.28%     92.48% # number of callpals executed
system.cpu0.kern.callpal::rti                      18      5.01%     97.49% # number of callpals executed
system.cpu0.kern.callpal::callsys                   9      2.51%    100.00% # number of callpals executed
system.cpu0.kern.callpal::total                   359                       # number of callpals executed
system.cpu0.kern.mode_switch::kernel               31                       # number of protection mode switches
system.cpu0.kern.mode_switch::user                 17                       # number of protection mode switches
system.cpu0.kern.mode_switch::idle                  0                       # number of protection mode switches
system.cpu0.kern.mode_good::kernel                 18                      
system.cpu0.kern.mode_good::user                   17                      
system.cpu0.kern.mode_good::idle                    0                      
system.cpu0.kern.mode_switch_good::kernel     0.580645                       # fraction of useful protection mode switches
system.cpu0.kern.mode_switch_good::user             1                       # fraction of useful protection mode switches
system.cpu0.kern.mode_switch_good::idle           nan                       # fraction of useful protection mode switches
system.cpu0.kern.mode_switch_good::total     0.729167                       # fraction of useful protection mode switches
system.cpu0.kern.mode_ticks::kernel          61220500     75.28%     75.28% # number of ticks spent at the given mode
system.cpu0.kern.mode_ticks::user            20102000     24.72%    100.00% # number of ticks spent at the given mode
system.cpu0.kern.mode_ticks::idle                   0      0.00%    100.00% # number of ticks spent at the given mode
system.cpu0.kern.swap_context                      12                       # number of times the context was actually changed
system.cpu0.committedInsts                          0                       # Number of instructions committed
system.cpu0.committedOps                            0                       # Number of ops (including micro ops) committed
system.cpu0.num_int_alu_accesses                    0                       # Number of integer alu accesses
system.cpu0.num_fp_alu_accesses                     0                       # Number of float alu accesses
system.cpu0.num_func_calls                          0                       # number of times a function call or return occured
system.cpu0.num_conditional_control_insts            0                       # number of instructions that are conditional controls
system.cpu0.num_int_insts                           0                       # number of integer instructions
system.cpu0.num_fp_insts                            0                       # number of float instructions
system.cpu0.num_int_register_reads                  0                       # number of times the integer registers were read
system.cpu0.num_int_register_writes                 0                       # number of times the integer registers were written
system.cpu0.num_fp_register_reads                   0                       # number of times the floating registers were read
system.cpu0.num_fp_register_writes                  0                       # number of times the floating registers were written
system.cpu0.num_mem_refs                            0                       # number of memory refs
system.cpu0.num_load_insts                          0                       # Number of load instructions
system.cpu0.num_store_insts                         0                       # Number of store instructions
system.cpu0.num_idle_cycles                         0                       # Number of idle cycles
system.cpu0.num_busy_cycles                         0                       # Number of busy cycles
system.cpu0.not_idle_fraction                       1                       # Percentage of non-idle cycles
system.cpu0.idle_fraction                           0                       # Percentage of idle cycles
system.cpu0.op_class::No_OpClass                    0                       # Class of executed instruction
system.cpu0.op_class::IntAlu                        0                       # Class of executed instruction
system.cpu0.op_class::IntMult                       0                       # Class of executed instruction
system.cpu0.op_class::IntDiv                        0                       # Class of executed instruction
system.cpu0.op_class::FloatAdd                      0                       # Class of executed instruction
system.cpu0.op_class::FloatCmp                      0                       # Class of executed instruction
system.cpu0.op_class::FloatCvt                      0                       # Class of executed instruction
system.cpu0.op_class::FloatMult                     0                       # Class of executed instruction
system.cpu0.op_class::FloatDiv                      0                       # Class of executed instruction
system.cpu0.op_class::FloatSqrt                     0                       # Class of executed instruction
system.cpu0.op_class::SimdAdd                       0                       # Class of executed instruction
system.cpu0.op_class::SimdAddAcc                    0                       # Class of executed instruction
system.cpu0.op_class::SimdAlu                       0                       # Class of executed instruction
system.cpu0.op_class::SimdCmp                       0                       # Class of executed instruction
system.cpu0.op_class::SimdCvt                       0                       # Class of executed instruction
system.cpu0.op_class::SimdMisc                      0                       # Class of executed instruction
system.cpu0.op_class::SimdMult                      0                       # Class of executed instruction
system.cpu0.op_class::SimdMultAcc                   0                       # Class of executed instruction
system.cpu0.op_class::SimdShift                     0                       # Class of executed instruction
system.cpu0.op_class::SimdShiftAcc                  0                       # Class of executed instruction
system.cpu0.op_class::SimdSqrt                      0                       # Class of executed instruction
system.cpu0.op_class::SimdFloatAdd                  0                       # Class of executed instruction
system.cpu0.op_class::SimdFloatAlu                  0                       # Class of executed instruction
system.cpu0.op_class::SimdFloatCmp                  0                       # Class of executed instruction
system.cpu0.op_class::SimdFloatCvt                  0                       # Class of executed instruction
system.cpu0.op_class::SimdFloatDiv                  0                       # Class of executed instruction
system.cpu0.op_class::SimdFloatMisc                 0                       # Class of executed instruction
system.cpu0.op_class::SimdFloatMult                 0                       # Class of executed instruction
system.cpu0.op_class::SimdFloatMultAcc              0                       # Class of executed instruction
system.cpu0.op_class::SimdFloatSqrt                 0                       # Class of executed instruction
system.cpu0.op_class::MemRead                       0                       # Class of executed instruction
system.cpu0.op_class::MemWrite                      0                       # Class of executed instruction
system.cpu0.op_class::IprAccess                     0                       # Class of executed instruction
system.cpu0.op_class::InstPrefetch                  0                       # Class of executed instruction
system.cpu0.op_class::total                         0                       # Class of executed instruction
system.cpu0.dcache.tags.replacements             4923                       # number of replacements
system.cpu0.dcache.tags.tagsinuse          460.594677                       # Cycle average of tags in use
system.cpu0.dcache.tags.total_refs              64542                       # Total number of references to valid blocks.
system.cpu0.dcache.tags.sampled_refs             4923                       # Sample count of references to valid blocks.
system.cpu0.dcache.tags.avg_refs            13.110299                       # Average number of references to valid blocks.
system.cpu0.dcache.tags.warmup_cycle                0                       # Cycle when the warmup percentage was hit.
system.cpu0.dcache.tags.occ_blocks::cpu0.data    22.933041                       # Average occupied blocks per requestor
system.cpu0.dcache.tags.occ_blocks::switch_cpus0.data   437.661636                       # Average occupied blocks per requestor
system.cpu0.dcache.tags.occ_percent::cpu0.data     0.044791                       # Average percentage of cache occupancy
system.cpu0.dcache.tags.occ_percent::switch_cpus0.data     0.854808                       # Average percentage of cache occupancy
system.cpu0.dcache.tags.occ_percent::total     0.899599                       # Average percentage of cache occupancy
system.cpu0.dcache.tags.occ_task_id_blocks::1024          401                       # Occupied blocks per task id
system.cpu0.dcache.tags.age_task_id_blocks_1024::2          401                       # Occupied blocks per task id
system.cpu0.dcache.tags.occ_task_id_percent::1024     0.783203                       # Percentage of cache occupancy per task id
system.cpu0.dcache.tags.tag_accesses           129078                       # Number of tag accesses
system.cpu0.dcache.tags.data_accesses          129078                       # Number of data accesses
system.cpu0.dcache.ReadReq_hits::switch_cpus0.data        30340                       # number of ReadReq hits
system.cpu0.dcache.ReadReq_hits::total          30340                       # number of ReadReq hits
system.cpu0.dcache.WriteReq_hits::switch_cpus0.data        25567                       # number of WriteReq hits
system.cpu0.dcache.WriteReq_hits::total         25567                       # number of WriteReq hits
system.cpu0.dcache.LoadLockedReq_hits::switch_cpus0.data          511                       # number of LoadLockedReq hits
system.cpu0.dcache.LoadLockedReq_hits::total          511                       # number of LoadLockedReq hits
system.cpu0.dcache.StoreCondReq_hits::switch_cpus0.data          579                       # number of StoreCondReq hits
system.cpu0.dcache.StoreCondReq_hits::total          579                       # number of StoreCondReq hits
system.cpu0.dcache.demand_hits::switch_cpus0.data        55907                       # number of demand (read+write) hits
system.cpu0.dcache.demand_hits::total           55907                       # number of demand (read+write) hits
system.cpu0.dcache.overall_hits::switch_cpus0.data        55907                       # number of overall hits
system.cpu0.dcache.overall_hits::total          55907                       # number of overall hits
system.cpu0.dcache.ReadReq_misses::switch_cpus0.data         2785                       # number of ReadReq misses
system.cpu0.dcache.ReadReq_misses::total         2785                       # number of ReadReq misses
system.cpu0.dcache.WriteReq_misses::switch_cpus0.data         2156                       # number of WriteReq misses
[...]
system.switch_cpus2.num_fp_register_writes          665                       # number of times the floating registers were written
system.switch_cpus2.num_mem_refs             35905076                       # number of memory refs
system.switch_cpus2.num_load_insts           21927484                       # Number of load instructions
system.switch_cpus2.num_store_insts          13977592                       # Number of store instructions
system.switch_cpus2.num_idle_cycles      580298.670506                       # Number of idle cycles
system.switch_cpus2.num_busy_cycles      104572051.329494                       # Number of busy cycles
system.switch_cpus2.not_idle_fraction        0.994481                       # Percentage of non-idle cycles
system.switch_cpus2.idle_fraction            0.005519                       # Percentage of idle cycles
system.switch_cpus2.Branches                 18241755                       # Number of branches fetched
system.switch_cpus2.op_class::No_OpClass     10312122      9.82%      9.82% # Class of executed instruction
system.switch_cpus2.op_class::IntAlu         58594206     55.81%     65.63% # Class of executed instruction
system.switch_cpus2.op_class::IntMult            9486      0.01%     65.64% # Class of executed instruction
system.switch_cpus2.op_class::IntDiv                0      0.00%     65.64% # Class of executed instruction
system.switch_cpus2.op_class::FloatAdd            515      0.00%     65.64% # Class of executed instruction
system.switch_cpus2.op_class::FloatCmp              1      0.00%     65.64% # Class of executed instruction
system.switch_cpus2.op_class::FloatCvt              5      0.00%     65.64% # Class of executed instruction
system.switch_cpus2.op_class::FloatMult             1      0.00%     65.64% # Class of executed instruction
system.switch_cpus2.op_class::FloatDiv             16      0.00%     65.64% # Class of executed instruction
system.switch_cpus2.op_class::FloatSqrt             0      0.00%     65.64% # Class of executed instruction
system.switch_cpus2.op_class::SimdAdd               0      0.00%     65.64% # Class of executed instruction
system.switch_cpus2.op_class::SimdAddAcc            0      0.00%     65.64% # Class of executed instruction
system.switch_cpus2.op_class::SimdAlu               0      0.00%     65.64% # Class of executed instruction
system.switch_cpus2.op_class::SimdCmp               0      0.00%     65.64% # Class of executed instruction
system.switch_cpus2.op_class::SimdCvt               0      0.00%     65.64% # Class of executed instruction
system.switch_cpus2.op_class::SimdMisc              0      0.00%     65.64% # Class of executed instruction
system.switch_cpus2.op_class::SimdMult              0      0.00%     65.64% # Class of executed instruction
system.switch_cpus2.op_class::SimdMultAcc            0      0.00%     65.64% # Class of executed instruction
system.switch_cpus2.op_class::SimdShift             0      0.00%     65.64% # Class of executed instruction
system.switch_cpus2.op_class::SimdShiftAcc            0      0.00%     65.64% # Class of executed instruction
system.switch_cpus2.op_class::SimdSqrt              0      0.00%     65.64% # Class of executed instruction
system.switch_cpus2.op_class::SimdFloatAdd            0      0.00%     65.64% # Class of executed instruction
system.switch_cpus2.op_class::SimdFloatAlu            0      0.00%     65.64% # Class of executed instruction
system.switch_cpus2.op_class::SimdFloatCmp            0      0.00%     65.64% # Class of executed instruction
system.switch_cpus2.op_class::SimdFloatCvt            0      0.00%     65.64% # Class of executed instruction
system.switch_cpus2.op_class::SimdFloatDiv            0      0.00%     65.64% # Class of executed instruction
system.switch_cpus2.op_class::SimdFloatMisc            0      0.00%     65.64% # Class of executed instruction
system.switch_cpus2.op_class::SimdFloatMult            0      0.00%     65.64% # Class of executed instruction
system.switch_cpus2.op_class::SimdFloatMultAcc            0      0.00%     65.64% # Class of executed instruction
system.switch_cpus2.op_class::SimdFloatSqrt            0      0.00%     65.64% # Class of executed instruction
system.switch_cpus2.op_class::MemRead        22028043     20.98%     86.63% # Class of executed instruction
system.switch_cpus2.op_class::MemWrite       13978248     13.31%     99.94% # Class of executed instruction
system.switch_cpus2.op_class::IprAccess         61716      0.06%    100.00% # Class of executed instruction
system.switch_cpus2.op_class::InstPrefetch            0      0.00%    100.00% # Class of executed instruction
system.switch_cpus2.op_class::total         104984359                       # Class of executed instruction
system.switch_cpus3.dtb.fetch_hits                  0                       # ITB hits
system.switch_cpus3.dtb.fetch_misses                0                       # ITB misses
system.switch_cpus3.dtb.fetch_acv                   0                       # ITB acv
system.switch_cpus3.dtb.fetch_accesses              0                       # ITB accesses
system.switch_cpus3.dtb.read_hits               41173                       # DTB read hits
system.switch_cpus3.dtb.read_misses               326                       # DTB read misses
system.switch_cpus3.dtb.read_acv                   12                       # DTB read access violations
system.switch_cpus3.dtb.read_accesses            1824                       # DTB read accesses
system.switch_cpus3.dtb.write_hits              23520                       # DTB write hits
system.switch_cpus3.dtb.write_misses               38                       # DTB write misses
system.switch_cpus3.dtb.write_acv                   9                       # DTB write access violations
system.switch_cpus3.dtb.write_accesses            875                       # DTB write accesses
system.switch_cpus3.dtb.data_hits               64693                       # DTB hits
system.switch_cpus3.dtb.data_misses               364                       # DTB misses
system.switch_cpus3.dtb.data_acv                   21                       # DTB access violations
system.switch_cpus3.dtb.data_accesses            2699                       # DTB accesses
system.switch_cpus3.itb.fetch_hits              34794                       # ITB hits
system.switch_cpus3.itb.fetch_misses              125                       # ITB misses
system.switch_cpus3.itb.fetch_acv                   0                       # ITB acv
system.switch_cpus3.itb.fetch_accesses          34919                       # ITB accesses
system.switch_cpus3.itb.read_hits                   0                       # DTB read hits
system.switch_cpus3.itb.read_misses                 0                       # DTB read misses
system.switch_cpus3.itb.read_acv                    0                       # DTB read access violations
system.switch_cpus3.itb.read_accesses               0                       # DTB read accesses
system.switch_cpus3.itb.write_hits                  0                       # DTB write hits
system.switch_cpus3.itb.write_misses                0                       # DTB write misses
system.switch_cpus3.itb.write_acv                   0                       # DTB write access violations
system.switch_cpus3.itb.write_accesses              0                       # DTB write accesses
system.switch_cpus3.itb.data_hits                   0                       # DTB hits
system.switch_cpus3.itb.data_misses                 0                       # DTB misses
system.switch_cpus3.itb.data_acv                    0                       # DTB access violations
system.switch_cpus3.itb.data_accesses               0                       # DTB accesses
system.switch_cpus3.numCycles               105152650                       # number of cpu cycles simulated
system.switch_cpus3.numWorkItemsStarted             0                       # number of work items this cpu started
system.switch_cpus3.numWorkItemsCompleted            0                       # number of work items this cpu completed
system.switch_cpus3.kern.inst.arm                   0                       # number of arm instructions executed
system.switch_cpus3.kern.inst.quiesce               0                       # number of quiesce instructions executed
system.switch_cpus3.kern.inst.hwrei                 0                       # number of hwrei instructions executed
system.switch_cpus3.kern.mode_switch::kernel            0                       # number of protection mode switches
system.switch_cpus3.kern.mode_switch::user            0                       # number of protection mode switches
system.switch_cpus3.kern.mode_switch::idle            0                       # number of protection mode switches
system.switch_cpus3.kern.mode_good::kernel            0                      
system.switch_cpus3.kern.mode_good::user            0                      
system.switch_cpus3.kern.mode_good::idle            0                      
system.switch_cpus3.kern.mode_switch_good::kernel          nan                       # fraction of useful protection mode switches
system.switch_cpus3.kern.mode_switch_good::user          nan                       # fraction of useful protection mode switches
system.switch_cpus3.kern.mode_switch_good::idle          nan                       # fraction of useful protection mode switches
system.switch_cpus3.kern.mode_switch_good::total          nan                       # fraction of useful protection mode switches
system.switch_cpus3.kern.mode_ticks::kernel            0                       # number of ticks spent at the given mode
system.switch_cpus3.kern.mode_ticks::user            0                       # number of ticks spent at the given mode
system.switch_cpus3.kern.mode_ticks::idle            0                       # number of ticks spent at the given mode
system.switch_cpus3.kern.swap_context               0                       # number of times the context was actually changed
system.switch_cpus3.committedInsts             214478                       # Number of instructions committed
system.switch_cpus3.committedOps               214478                       # Number of ops (including micro ops) committed
system.switch_cpus3.num_int_alu_accesses       205558                       # Number of integer alu accesses
system.switch_cpus3.num_fp_alu_accesses           364                       # Number of float alu accesses
system.switch_cpus3.num_func_calls               6006                       # number of times a function call or return occured
system.switch_cpus3.num_conditional_control_insts        21293                       # number of instructions that are conditional controls
system.switch_cpus3.num_int_insts              205558                       # number of integer instructions
system.switch_cpus3.num_fp_insts                  364                       # number of float instructions
system.switch_cpus3.num_int_register_reads       275369                       # number of times the integer registers were read
system.switch_cpus3.num_int_register_writes       159018                       # number of times the integer registers were written
system.switch_cpus3.num_fp_register_reads          186                       # number of times the floating registers were read
system.switch_cpus3.num_fp_register_writes          189                       # number of times the floating registers were written
system.switch_cpus3.num_mem_refs                65863                       # number of memory refs
system.switch_cpus3.num_load_insts              42062                       # Number of load instructions
system.switch_cpus3.num_store_insts             23801                       # Number of store instructions
system.switch_cpus3.num_idle_cycles      104938562.110076                       # Number of idle cycles
system.switch_cpus3.num_busy_cycles      214087.889924                       # Number of busy cycles
system.switch_cpus3.not_idle_fraction        0.002036                       # Percentage of non-idle cycles
system.switch_cpus3.idle_fraction            0.997964                       # Percentage of idle cycles
system.switch_cpus3.Branches                    30011                       # Number of branches fetched
system.switch_cpus3.op_class::No_OpClass         3315      1.54%      1.54% # Class of executed instruction
system.switch_cpus3.op_class::IntAlu           133459     62.11%     63.66% # Class of executed instruction
system.switch_cpus3.op_class::IntMult             376      0.17%     63.83% # Class of executed instruction
system.switch_cpus3.op_class::IntDiv                0      0.00%     63.83% # Class of executed instruction
system.switch_cpus3.op_class::FloatAdd             27      0.01%     63.84% # Class of executed instruction
system.switch_cpus3.op_class::FloatCmp              0      0.00%     63.84% # Class of executed instruction
system.switch_cpus3.op_class::FloatCvt              0      0.00%     63.84% # Class of executed instruction
system.switch_cpus3.op_class::FloatMult             0      0.00%     63.84% # Class of executed instruction
system.switch_cpus3.op_class::FloatDiv              3      0.00%     63.85% # Class of executed instruction
system.switch_cpus3.op_class::FloatSqrt             0      0.00%     63.85% # Class of executed instruction
system.switch_cpus3.op_class::SimdAdd               0      0.00%     63.85% # Class of executed instruction
system.switch_cpus3.op_class::SimdAddAcc            0      0.00%     63.85% # Class of executed instruction
system.switch_cpus3.op_class::SimdAlu               0      0.00%     63.85% # Class of executed instruction
system.switch_cpus3.op_class::SimdCmp               0      0.00%     63.85% # Class of executed instruction
system.switch_cpus3.op_class::SimdCvt               0      0.00%     63.85% # Class of executed instruction
system.switch_cpus3.op_class::SimdMisc              0      0.00%     63.85% # Class of executed instruction
system.switch_cpus3.op_class::SimdMult              0      0.00%     63.85% # Class of executed instruction
system.switch_cpus3.op_class::SimdMultAcc            0      0.00%     63.85% # Class of executed instruction
system.switch_cpus3.op_class::SimdShift             0      0.00%     63.85% # Class of executed instruction
system.switch_cpus3.op_class::SimdShiftAcc            0      0.00%     63.85% # Class of executed instruction
system.switch_cpus3.op_class::SimdSqrt              0      0.00%     63.85% # Class of executed instruction
system.switch_cpus3.op_class::SimdFloatAdd            0      0.00%     63.85% # Class of executed instruction
system.switch_cpus3.op_class::SimdFloatAlu            0      0.00%     63.85% # Class of executed instruction
system.switch_cpus3.op_class::SimdFloatCmp            0      0.00%     63.85% # Class of executed instruction
system.switch_cpus3.op_class::SimdFloatCvt            0      0.00%     63.85% # Class of executed instruction
system.switch_cpus3.op_class::SimdFloatDiv            0      0.00%     63.85% # Class of executed instruction
system.switch_cpus3.op_class::SimdFloatMisc            0      0.00%     63.85% # Class of executed instruction
system.switch_cpus3.op_class::SimdFloatMult            0      0.00%     63.85% # Class of executed instruction
system.switch_cpus3.op_class::SimdFloatMultAcc            0      0.00%     63.85% # Class of executed instruction
system.switch_cpus3.op_class::SimdFloatSqrt            0      0.00%     63.85% # Class of executed instruction
system.switch_cpus3.op_class::MemRead           43510     20.25%     84.10% # Class of executed instruction
system.switch_cpus3.op_class::MemWrite          23811     11.08%     95.18% # Class of executed instruction
system.switch_cpus3.op_class::IprAccess         10362      4.82%    100.00% # Class of executed instruction
system.switch_cpus3.op_class::InstPrefetch            0      0.00%    100.00% # Class of executed instruction
system.switch_cpus3.op_class::total            214863                       # Class of executed instruction
system.tsunami.ethernet.descDMAReads                0                       # Number of descriptors the device read w/ DMA
system.tsunami.ethernet.descDMAWrites               0                       # Number of descriptors the device wrote w/ DMA
system.tsunami.ethernet.descDmaReadBytes            0                       # number of descriptor bytes read w/ DMA
system.tsunami.ethernet.descDmaWriteBytes            0                       # number of descriptor bytes write w/ DMA
system.tsunami.ethernet.postedSwi                   0                       # number of software interrupts posted to CPU
system.tsunami.ethernet.coalescedSwi              nan                       # average number of Swi's coalesced into each post
system.tsunami.ethernet.totalSwi                    0                       # total number of Swi written to ISR
system.tsunami.ethernet.postedRxIdle                0                       # number of rxIdle interrupts posted to CPU
system.tsunami.ethernet.coalescedRxIdle           nan                       # average number of RxIdle's coalesced into each post
system.tsunami.ethernet.totalRxIdle                 0                       # total number of RxIdle written to ISR
system.tsunami.ethernet.postedRxOk                  0                       # number of RxOk interrupts posted to CPU
system.tsunami.ethernet.coalescedRxOk             nan                       # average number of RxOk's coalesced into each post
system.tsunami.ethernet.totalRxOk                   0                       # total number of RxOk written to ISR
system.tsunami.ethernet.postedRxDesc                0                       # number of RxDesc interrupts posted to CPU
system.tsunami.ethernet.coalescedRxDesc           nan                       # average number of RxDesc's coalesced into each post
system.tsunami.ethernet.totalRxDesc                 0                       # total number of RxDesc written to ISR
system.tsunami.ethernet.postedTxOk                  0                       # number of TxOk interrupts posted to CPU
system.tsunami.ethernet.coalescedTxOk             nan                       # average number of TxOk's coalesced into each post
system.tsunami.ethernet.totalTxOk                   0                       # total number of TxOk written to ISR
system.tsunami.ethernet.postedTxIdle                0                       # number of TxIdle interrupts posted to CPU
system.tsunami.ethernet.coalescedTxIdle           nan                       # average number of TxIdle's coalesced into each post
system.tsunami.ethernet.totalTxIdle                 0                       # total number of TxIdle written to ISR
system.tsunami.ethernet.postedTxDesc                0                       # number of TxDesc interrupts posted to CPU
system.tsunami.ethernet.coalescedTxDesc           nan                       # average number of TxDesc's coalesced into each post
system.tsunami.ethernet.totalTxDesc                 0                       # total number of TxDesc written to ISR
system.tsunami.ethernet.postedRxOrn                 0                       # number of RxOrn posted to CPU
system.tsunami.ethernet.coalescedRxOrn            nan                       # average number of RxOrn's coalesced into each post
system.tsunami.ethernet.totalRxOrn                  0                       # total number of RxOrn written to ISR
system.tsunami.ethernet.coalescedTotal            nan                       # average number of interrupts coalesced into each post
system.tsunami.ethernet.postedInterrupts            0                       # number of posts to CPU
system.tsunami.ethernet.droppedPackets              0                       # number of packets dropped

---------- End Simulation Statistics   ----------
