Redirecting stdout to build/ALPHA/tests/opt/quick/se/01.hello-2T-smt/alpha/linux/o3-timing-mt/simout
Redirecting stderr to build/ALPHA/tests/opt/quick/se/01.hello-2T-smt/alpha/linux/o3-timing-mt/simerr
gem5 Simulator System.  http://gem5.org
gem5 is copyrighted software; use the --copyright option for details.

gem5 compiled Mar 14 2016 21:54:46
gem5 started Mar 14 2016 21:58:29
gem5 executing on phenom, pid 28223
command line: build/ALPHA/gem5.opt -d build/ALPHA/tests/opt/quick/se/01.hello-2T-smt/alpha/linux/o3-timing-mt -re /home/stever/hg/m5sim.org/gem5/tests/run.py build/ALPHA/tests/opt/quick/se/01.hello-2T-smt/alpha/linux/o3-timing-mt

Global frequency set at 1000000000000 ticks per second
info: Entering event queue @ 0.  Starting simulation...
info: Increasing stack size by one page.
info: Increasing stack size by one page.
Hello world!
Hello world!
Exiting @ tick 24794500 because target called exit()
