
---------- Begin Simulation Statistics ----------
sim_seconds                                  0.000327                       # Number of seconds simulated
sim_ticks                                      327361                       # Number of ticks simulated
final_tick                                     327361                       # Number of ticks from beginning of simulation (restored from checkpoints and never reset)
sim_freq                                   1000000000                       # Frequency of simulated ticks
host_tick_rate                                 557303                       # Simulator tick rate (ticks/s)
host_mem_usage                                 169404                       # Number of bytes of host memory used
host_seconds                                     0.59                       # Real time elapsed on the host
system.ruby.outstanding_req_hist::bucket_size            2                      
system.ruby.outstanding_req_hist::max_bucket           19                      
system.ruby.outstanding_req_hist::samples         1000                      
system.ruby.outstanding_req_hist::mean      15.813000                      
system.ruby.outstanding_req_hist::gmean     15.714362                      
system.ruby.outstanding_req_hist::stdev      1.128408                      
system.ruby.outstanding_req_hist         |           1      0.10%      0.10% |           2      0.20%      0.30% |           2      0.20%      0.50% |           2      0.20%      0.70% |           2      0.20%      0.90% |           2      0.20%      1.10% |           2      0.20%      1.30% |          69      6.90%      8.20% |         918     91.80%    100.00% |           0      0.00%    100.00%
system.ruby.outstanding_req_hist::total          1000                      
system.ruby.latency_hist::bucket_size            4096                      
system.ruby.latency_hist::max_bucket            40959                      
system.ruby.latency_hist::samples                 985                      
system.ruby.latency_hist::mean            5192.155330                      
system.ruby.latency_hist::gmean           1411.192372                      
system.ruby.latency_hist::stdev           6963.102626                      
system.ruby.latency_hist                 |         695     70.56%     70.56% |          43      4.37%     74.92% |          33      3.35%     78.27% |          91      9.24%     87.51% |          85      8.63%     96.14% |          28      2.84%     98.98% |           9      0.91%     99.90% |           1      0.10%    100.00% |           0      0.00%    100.00% |           0      0.00%    100.00%
system.ruby.latency_hist::total                   985                      
system.ruby.hit_latency_hist::bucket_size           16                      
system.ruby.hit_latency_hist::max_bucket          159                      
system.ruby.hit_latency_hist::samples              78                      
system.ruby.hit_latency_hist::mean           9.089744                      
system.ruby.hit_latency_hist::gmean          2.589753                      
system.ruby.hit_latency_hist::stdev         26.203591                      
system.ruby.hit_latency_hist             |          73     93.59%     93.59% |           0      0.00%     93.59% |           0      0.00%     93.59% |           0      0.00%     93.59% |           0      0.00%     93.59% |           0      0.00%     93.59% |           4      5.13%     98.72% |           1      1.28%    100.00% |           0      0.00%    100.00% |           0      0.00%    100.00%
system.ruby.hit_latency_hist::total                78                      
system.ruby.miss_latency_hist::bucket_size         4096                      
system.ruby.miss_latency_hist::max_bucket        40959                      
system.ruby.miss_latency_hist::samples            907                      
system.ruby.miss_latency_hist::mean       5637.887541                      
system.ruby.miss_latency_hist::gmean      2426.075868                      
system.ruby.miss_latency_hist::stdev      7081.470328                      
system.ruby.miss_latency_hist            |         617     68.03%     68.03% |          43      4.74%     72.77% |          33      3.64%     76.41% |          91     10.03%     86.44% |          85      9.37%     95.81% |          28      3.09%     98.90% |           9      0.99%     99.89% |           1      0.11%    100.00% |           0      0.00%    100.00% |           0      0.00%    100.00%
system.ruby.miss_latency_hist::total              907                      
system.ruby.l1_cntrl0.L1Dcache.demand_hits           78                       # Number of cache demand hits
system.ruby.l1_cntrl0.L1Dcache.demand_misses          852                       # Number of cache demand misses
system.ruby.l1_cntrl0.L1Dcache.demand_accesses          930                       # Number of cache demand accesses
system.ruby.l1_cntrl0.L1Icache.demand_hits            0                       # Number of cache demand hits
system.ruby.l1_cntrl0.L1Icache.demand_misses           56                       # Number of cache demand misses
system.ruby.l1_cntrl0.L1Icache.demand_accesses           56                       # Number of cache demand accesses
system.ruby.l1_cntrl0.sequencer.store_waiting_on_load            8                       # Number of times a store aliased with a pending load
system.ruby.l1_cntrl0.sequencer.store_waiting_on_store          111                       # Number of times a store aliased with a pending store
system.ruby.l1_cntrl0.sequencer.load_waiting_on_store           15                       # Number of times a load aliased with a pending store
system.ruby.l1_cntrl0.sequencer.load_waiting_on_load            2                       # Number of times a load aliased with a pending load
system.ruby.network.routers0.percent_links_utilized     1.520569                      
system.ruby.network.routers0.msg_count.Request_Control::0          908                      
system.ruby.network.routers0.msg_count.Response_Data::2          854                      
system.ruby.network.routers0.msg_count.ResponseL2hit_Data::2           53                      
system.ruby.network.routers0.msg_count.Writeback_Data::2          903                      
system.ruby.network.routers0.msg_count.Writeback_Control::0         1806                      
system.ruby.network.routers0.msg_count.Unblock_Control::2          907                      
system.ruby.network.routers0.msg_bytes.Request_Control::0         7264                      
system.ruby.network.routers0.msg_bytes.Response_Data::2        61488                      
system.ruby.network.routers0.msg_bytes.ResponseL2hit_Data::2         3816                      
system.ruby.network.routers0.msg_bytes.Writeback_Data::2        65016                      
system.ruby.network.routers0.msg_bytes.Writeback_Control::0        14448                      
system.ruby.network.routers0.msg_bytes.Unblock_Control::2         7256                      
system.ruby.l2_cntrl0.L2cache.demand_hits           53                       # Number of cache demand hits
system.ruby.l2_cntrl0.L2cache.demand_misses          855                       # Number of cache demand misses
system.ruby.l2_cntrl0.L2cache.demand_accesses          908                       # Number of cache demand accesses
system.ruby.network.routers1.percent_links_utilized     2.898940                      
system.ruby.network.routers1.msg_count.Request_Control::0          908                      
system.ruby.network.routers1.msg_count.Request_Control::1          855                      
system.ruby.network.routers1.msg_count.Response_Data::2         1708                      
system.ruby.network.routers1.msg_count.ResponseL2hit_Data::2           53                      
system.ruby.network.routers1.msg_count.Writeback_Data::2         1668                      
system.ruby.network.routers1.msg_count.Writeback_Control::0         1806                      
system.ruby.network.routers1.msg_count.Writeback_Control::1         1692                      
system.ruby.network.routers1.msg_count.Writeback_Control::2           80                      
system.ruby.network.routers1.msg_count.Unblock_Control::2         1758                      
system.ruby.network.routers1.msg_bytes.Request_Control::0         7264                      
system.ruby.network.routers1.msg_bytes.Request_Control::1         6840                      
system.ruby.network.routers1.msg_bytes.Response_Data::2       122976                      
system.ruby.network.routers1.msg_bytes.ResponseL2hit_Data::2         3816                      
system.ruby.network.routers1.msg_bytes.Writeback_Data::2       120096                      
system.ruby.network.routers1.msg_bytes.Writeback_Control::0        14448                      
system.ruby.network.routers1.msg_bytes.Writeback_Control::1        13536                      
system.ruby.network.routers1.msg_bytes.Writeback_Control::2          640                      
system.ruby.network.routers1.msg_bytes.Unblock_Control::2        14064                      
system.ruby.dir_cntrl0.memBuffer.memReq          1619                       # Total number of memory requests
system.ruby.dir_cntrl0.memBuffer.memRead          854                       # Number of memory reads
system.ruby.dir_cntrl0.memBuffer.memWrite          765                       # Number of memory writes
system.ruby.dir_cntrl0.memBuffer.memRefresh         2273                       # Number of memory refreshes
system.ruby.dir_cntrl0.memBuffer.memWaitCycles          420                       # Delay stalled at the head of the bank queue
system.ruby.dir_cntrl0.memBuffer.memInputQ           26                       # Delay in the input queue
system.ruby.dir_cntrl0.memBuffer.totalStalls          446                       # Total number of stall cycles
system.ruby.dir_cntrl0.memBuffer.stallsPerReq     0.275479                       # Expected number of stall cycles per request
system.ruby.dir_cntrl0.memBuffer.memBankBusy          163                       # memory stalls due to busy bank
system.ruby.dir_cntrl0.memBuffer.memBusBusy          144                       # memory stalls due to busy bus
system.ruby.dir_cntrl0.memBuffer.memReadWriteBusy           21                       # memory stalls due to read write turnaround
system.ruby.dir_cntrl0.memBuffer.memDataBusBusy           60                       # memory stalls due to read read turnaround
system.ruby.dir_cntrl0.memBuffer.memArbWait           32                       # memory stalls due to arbitration
system.ruby.dir_cntrl0.memBuffer.memBankCount |          49      3.03%      3.03% |          44      2.72%      5.74% |          48      2.96%      8.71% |          84      5.19%     13.90% |          49      3.03%     16.92% |          52      3.21%     20.14% |          64      3.95%     24.09% |          51      3.15%     27.24% |          40      2.47%     29.71% |          45      2.78%     32.49% |          48      2.96%     35.45% |          41      2.53%     37.99% |          74      4.57%     42.56% |          47      2.90%     45.46% |          51      3.15%     48.61% |          38      2.35%     50.96% |          56      3.46%     54.42% |          62      3.83%     58.25% |          37      2.29%     60.53% |          58      3.58%     64.11% |          46      2.84%     66.95% |          50      3.09%     70.04% |          55      3.40%     73.44% |          36      2.22%     75.66% |          49      3.03%     78.69% |          71      4.39%     83.08% |          52      3.21%     86.29% |          40      2.47%     88.76% |          42      2.59%     91.35% |          33      2.04%     93.39% |          48      2.96%     96.36% |          59      3.64%    100.00% # Number of accesses per bank
system.ruby.dir_cntrl0.memBuffer.memBankCount::total         1619                       # Number of accesses per bank
system.ruby.network.routers2.percent_links_utilized     1.378219                      
system.ruby.network.routers2.msg_count.Request_Control::1          854                      
system.ruby.network.routers2.msg_count.Response_Data::2          854                      
system.ruby.network.routers2.msg_count.Writeback_Data::2          765                      
system.ruby.network.routers2.msg_count.Writeback_Control::1         1690                      
system.ruby.network.routers2.msg_count.Writeback_Control::2           80                      
system.ruby.network.routers2.msg_count.Unblock_Control::2          852                      
system.ruby.network.routers2.msg_bytes.Request_Control::1         6832                      
system.ruby.network.routers2.msg_bytes.Response_Data::2        61488                      
system.ruby.network.routers2.msg_bytes.Writeback_Data::2        55080                      
system.ruby.network.routers2.msg_bytes.Writeback_Control::1        13520                      
system.ruby.network.routers2.msg_bytes.Writeback_Control::2          640                      
system.ruby.network.routers2.msg_bytes.Unblock_Control::2         6816                      
system.ruby.network.routers3.percent_links_utilized     1.932474                      
system.ruby.network.routers3.msg_count.Request_Control::0          908                      
system.ruby.network.routers3.msg_count.Request_Control::1          854                      
system.ruby.network.routers3.msg_count.Response_Data::2         1708                      
system.ruby.network.routers3.msg_count.ResponseL2hit_Data::2           53                      
system.ruby.network.routers3.msg_count.Writeback_Data::2         1668                      
system.ruby.network.routers3.msg_count.Writeback_Control::0         1806                      
system.ruby.network.routers3.msg_count.Writeback_Control::1         1690                      
system.ruby.network.routers3.msg_count.Writeback_Control::2           80                      
system.ruby.network.routers3.msg_count.Unblock_Control::2         1758                      
system.ruby.network.routers3.msg_bytes.Request_Control::0         7264                      
system.ruby.network.routers3.msg_bytes.Request_Control::1         6832                      
system.ruby.network.routers3.msg_bytes.Response_Data::2       122976                      
system.ruby.network.routers3.msg_bytes.ResponseL2hit_Data::2         3816                      
system.ruby.network.routers3.msg_bytes.Writeback_Data::2       120096                      
system.ruby.network.routers3.msg_bytes.Writeback_Control::0        14448                      
system.ruby.network.routers3.msg_bytes.Writeback_Control::1        13520                      
system.ruby.network.routers3.msg_bytes.Writeback_Control::2          640                      
system.ruby.network.routers3.msg_bytes.Unblock_Control::2        14064                      
system.ruby.network.msg_count.Request_Control         5287                      
system.ruby.network.msg_count.Response_Data         5124                      
system.ruby.network.msg_count.ResponseL2hit_Data          159                      
system.ruby.network.msg_count.Writeback_Data         5004                      
system.ruby.network.msg_count.Writeback_Control        10730                      
system.ruby.network.msg_count.Unblock_Control         5275                      
system.ruby.network.msg_byte.Request_Control        42296                      
system.ruby.network.msg_byte.Response_Data       368928                      
system.ruby.network.msg_byte.ResponseL2hit_Data        11448                      
system.ruby.network.msg_byte.Writeback_Data       360288                      
system.ruby.network.msg_byte.Writeback_Control        85840                      
system.ruby.network.msg_byte.Unblock_Control        42200                      
system.ruby.network.routers0.throttle0.link_utilization     1.384710                      
system.ruby.network.routers0.throttle0.msg_count.Response_Data::2          854                      
system.ruby.network.routers0.throttle0.msg_count.ResponseL2hit_Data::2           53                      
system.ruby.network.routers0.throttle0.msg_count.Writeback_Control::0          903                      
system.ruby.network.routers0.throttle0.msg_bytes.Response_Data::2        61488                      
system.ruby.network.routers0.throttle0.msg_bytes.ResponseL2hit_Data::2         3816                      
system.ruby.network.routers0.throttle0.msg_bytes.Writeback_Control::0         7224                      
system.ruby.network.routers0.throttle1.link_utilization     1.656428                      
system.ruby.network.routers0.throttle1.msg_count.Request_Control::0          908                      
system.ruby.network.routers0.throttle1.msg_count.Writeback_Data::2          903                      
system.ruby.network.routers0.throttle1.msg_count.Writeback_Control::0          903                      
system.ruby.network.routers0.throttle1.msg_count.Unblock_Control::2          907                      
system.ruby.network.routers0.throttle1.msg_bytes.Request_Control::0         7264                      
system.ruby.network.routers0.throttle1.msg_bytes.Writeback_Data::2        65016                      
system.ruby.network.routers0.throttle1.msg_bytes.Writeback_Control::0         7224                      
system.ruby.network.routers0.throttle1.msg_bytes.Unblock_Control::2         7256                      
system.ruby.network.routers1.throttle0.link_utilization     2.959271                      
system.ruby.network.routers1.throttle0.msg_count.Request_Control::0          908                      
system.ruby.network.routers1.throttle0.msg_count.Response_Data::2          854                      
system.ruby.network.routers1.throttle0.msg_count.Writeback_Data::2          903                      
system.ruby.network.routers1.throttle0.msg_count.Writeback_Control::0          903                      
system.ruby.network.routers1.throttle0.msg_count.Writeback_Control::1          845                      
system.ruby.network.routers1.throttle0.msg_count.Unblock_Control::2          906                      
system.ruby.network.routers1.throttle0.msg_bytes.Request_Control::0         7264                      
system.ruby.network.routers1.throttle0.msg_bytes.Response_Data::2        61488                      
system.ruby.network.routers1.throttle0.msg_bytes.Writeback_Data::2        65016                      
system.ruby.network.routers1.throttle0.msg_bytes.Writeback_Control::0         7224                      
system.ruby.network.routers1.throttle0.msg_bytes.Writeback_Control::1         6760                      
system.ruby.network.routers1.throttle0.msg_bytes.Unblock_Control::2         7248                      
system.ruby.network.routers1.throttle1.link_utilization     2.838609                      
system.ruby.network.routers1.throttle1.msg_count.Request_Control::1          855                      
system.ruby.network.routers1.throttle1.msg_count.Response_Data::2          854                      
system.ruby.network.routers1.throttle1.msg_count.ResponseL2hit_Data::2           53                      
system.ruby.network.routers1.throttle1.msg_count.Writeback_Data::2          765                      
system.ruby.network.routers1.throttle1.msg_count.Writeback_Control::0          903                      
system.ruby.network.routers1.throttle1.msg_count.Writeback_Control::1          847                      
system.ruby.network.routers1.throttle1.msg_count.Writeback_Control::2           80                      
system.ruby.network.routers1.throttle1.msg_count.Unblock_Control::2          852                      
system.ruby.network.routers1.throttle1.msg_bytes.Request_Control::1         6840                      
system.ruby.network.routers1.throttle1.msg_bytes.Response_Data::2        61488                      
system.ruby.network.routers1.throttle1.msg_bytes.ResponseL2hit_Data::2         3816                      
system.ruby.network.routers1.throttle1.msg_bytes.Writeback_Data::2        55080                      
system.ruby.network.routers1.throttle1.msg_bytes.Writeback_Control::0         7224                      
system.ruby.network.routers1.throttle1.msg_bytes.Writeback_Control::1         6776                      
system.ruby.network.routers1.throttle1.msg_bytes.Writeback_Control::2          640                      
system.ruby.network.routers1.throttle1.msg_bytes.Unblock_Control::2         6816                      
system.ruby.network.routers2.throttle0.link_utilization     1.453441                      
system.ruby.network.routers2.throttle0.msg_count.Request_Control::1          854                      
system.ruby.network.routers2.throttle0.msg_count.Writeback_Data::2          765                      
system.ruby.network.routers2.throttle0.msg_count.Writeback_Control::1          845                      
system.ruby.network.routers2.throttle0.msg_count.Writeback_Control::2           80                      
system.ruby.network.routers2.throttle0.msg_count.Unblock_Control::2          852                      
system.ruby.network.routers2.throttle0.msg_bytes.Request_Control::1         6832                      
system.ruby.network.routers2.throttle0.msg_bytes.Writeback_Data::2        55080                      
system.ruby.network.routers2.throttle0.msg_bytes.Writeback_Control::1         6760                      
system.ruby.network.routers2.throttle0.msg_bytes.Writeback_Control::2          640                      
system.ruby.network.routers2.throttle0.msg_bytes.Unblock_Control::2         6816                      
system.ruby.network.routers2.throttle1.link_utilization     1.302996                      
system.ruby.network.routers2.throttle1.msg_count.Response_Data::2          854                      
system.ruby.network.routers2.throttle1.msg_count.Writeback_Control::1          845                      
system.ruby.network.routers2.throttle1.msg_bytes.Response_Data::2        61488                      
system.ruby.network.routers2.throttle1.msg_bytes.Writeback_Control::1         6760                      
system.ruby.network.routers3.throttle0.link_utilization     1.384710                      
system.ruby.network.routers3.throttle0.msg_count.Response_Data::2          854                      
system.ruby.network.routers3.throttle0.msg_count.ResponseL2hit_Data::2           53                      
system.ruby.network.routers3.throttle0.msg_count.Writeback_Control::0          903                      
system.ruby.network.routers3.throttle0.msg_bytes.Response_Data::2        61488                      
system.ruby.network.routers3.throttle0.msg_bytes.ResponseL2hit_Data::2         3816                      
system.ruby.network.routers3.throttle0.msg_bytes.Writeback_Control::0         7224                      
system.ruby.network.routers3.throttle1.link_utilization     2.959271                      
system.ruby.network.routers3.throttle1.msg_count.Request_Control::0          908                      
system.ruby.network.routers3.throttle1.msg_count.Response_Data::2          854                      
system.ruby.network.routers3.throttle1.msg_count.Writeback_Data::2          903                      
system.ruby.network.routers3.throttle1.msg_count.Writeback_Control::0          903                      
system.ruby.network.routers3.throttle1.msg_count.Writeback_Control::1          845                      
system.ruby.network.routers3.throttle1.msg_count.Unblock_Control::2          906                      
system.ruby.network.routers3.throttle1.msg_bytes.Request_Control::0         7264                      
system.ruby.network.routers3.throttle1.msg_bytes.Response_Data::2        61488                      
system.ruby.network.routers3.throttle1.msg_bytes.Writeback_Data::2        65016                      
system.ruby.network.routers3.throttle1.msg_bytes.Writeback_Control::0         7224                      
system.ruby.network.routers3.throttle1.msg_bytes.Writeback_Control::1         6760                      
system.ruby.network.routers3.throttle1.msg_bytes.Unblock_Control::2         7248                      
system.ruby.network.routers3.throttle2.link_utilization     1.453441                      
system.ruby.network.routers3.throttle2.msg_count.Request_Control::1          854                      
system.ruby.network.routers3.throttle2.msg_count.Writeback_Data::2          765                      
system.ruby.network.routers3.throttle2.msg_count.Writeback_Control::1          845                      
system.ruby.network.routers3.throttle2.msg_count.Writeback_Control::2           80                      
system.ruby.network.routers3.throttle2.msg_count.Unblock_Control::2          852                      
system.ruby.network.routers3.throttle2.msg_bytes.Request_Control::1         6832                      
system.ruby.network.routers3.throttle2.msg_bytes.Writeback_Data::2        55080                      
system.ruby.network.routers3.throttle2.msg_bytes.Writeback_Control::1         6760                      
system.ruby.network.routers3.throttle2.msg_bytes.Writeback_Control::2          640                      
system.ruby.network.routers3.throttle2.msg_bytes.Unblock_Control::2         6816                      
system.ruby.LD.latency_hist::bucket_size         4096                      
system.ruby.LD.latency_hist::max_bucket         40959                      
system.ruby.LD.latency_hist::samples               44                      
system.ruby.LD.latency_hist::mean         5510.704545                      
system.ruby.LD.latency_hist::gmean         869.978187                      
system.ruby.LD.latency_hist::stdev        7880.576607                      
system.ruby.LD.latency_hist              |          32     72.73%     72.73% |           0      0.00%     72.73% |           1      2.27%     75.00% |           4      9.09%     84.09% |           5     11.36%     95.45% |           1      2.27%     97.73% |           1      2.27%    100.00% |           0      0.00%    100.00% |           0      0.00%    100.00% |           0      0.00%    100.00%
system.ruby.LD.latency_hist::total                 44                      
system.ruby.LD.hit_latency_hist::bucket_size            1                      
system.ruby.LD.hit_latency_hist::max_bucket            9                      
system.ruby.LD.hit_latency_hist::samples            6                      
system.ruby.LD.hit_latency_hist::mean        2.166667                      
system.ruby.LD.hit_latency_hist::gmean       1.906369                      
system.ruby.LD.hit_latency_hist::stdev       1.169045                      
system.ruby.LD.hit_latency_hist          |           0      0.00%      0.00% |           2     33.33%     33.33% |           2     33.33%     66.67% |           1     16.67%     83.33% |           1     16.67%    100.00% |           0      0.00%    100.00% |           0      0.00%    100.00% |           0      0.00%    100.00% |           0      0.00%    100.00% |           0      0.00%    100.00%
system.ruby.LD.hit_latency_hist::total              6                      
system.ruby.LD.miss_latency_hist::bucket_size         4096                      
system.ruby.LD.miss_latency_hist::max_bucket        40959                      
system.ruby.LD.miss_latency_hist::samples           38                      
system.ruby.LD.miss_latency_hist::mean    6380.473684                      
system.ruby.LD.miss_latency_hist::gmean   2287.694735                      
system.ruby.LD.miss_latency_hist::stdev   8153.326443                      
system.ruby.LD.miss_latency_hist         |          26     68.42%     68.42% |           0      0.00%     68.42% |           1      2.63%     71.05% |           4     10.53%     81.58% |           5     13.16%     94.74% |           1      2.63%     97.37% |           1      2.63%    100.00% |           0      0.00%    100.00% |           0      0.00%    100.00% |           0      0.00%    100.00%
system.ruby.LD.miss_latency_hist::total            38                      
system.ruby.ST.latency_hist::bucket_size         4096                      
system.ruby.ST.latency_hist::max_bucket         40959                      
system.ruby.ST.latency_hist::samples              885                      
system.ruby.ST.latency_hist::mean         5462.276836                      
system.ruby.ST.latency_hist::gmean        1523.559741                      
system.ruby.ST.latency_hist::stdev        7040.777523                      
system.ruby.ST.latency_hist              |         607     68.59%     68.59% |          43      4.86%     73.45% |          32      3.62%     77.06% |          87      9.83%     86.89% |          80      9.04%     95.93% |          27      3.05%     98.98% |           8      0.90%     99.89% |           1      0.11%    100.00% |           0      0.00%    100.00% |           0      0.00%    100.00%
system.ruby.ST.latency_hist::total                885                      
system.ruby.ST.hit_latency_hist::bucket_size           16                      
system.ruby.ST.hit_latency_hist::max_bucket          159                      
system.ruby.ST.hit_latency_hist::samples           72                      
system.ruby.ST.hit_latency_hist::mean        9.666667                      
system.ruby.ST.hit_latency_hist::gmean       2.656722                      
system.ruby.ST.hit_latency_hist::stdev      27.206047                      
system.ruby.ST.hit_latency_hist          |          67     93.06%     93.06% |           0      0.00%     93.06% |           0      0.00%     93.06% |           0      0.00%     93.06% |           0      0.00%     93.06% |           0      0.00%     93.06% |           4      5.56%     98.61% |           1      1.39%    100.00% |           0      0.00%    100.00% |           0      0.00%    100.00%
system.ruby.ST.hit_latency_hist::total             72                      
system.ruby.ST.miss_latency_hist::bucket_size         4096                      
system.ruby.ST.miss_latency_hist::max_bucket        40959                      
system.ruby.ST.miss_latency_hist::samples          813                      
system.ruby.ST.miss_latency_hist::mean    5945.164822                      
system.ruby.ST.miss_latency_hist::gmean   2673.966009                      
system.ruby.ST.miss_latency_hist::stdev   7148.312268                      
system.ruby.ST.miss_latency_hist         |         535     65.81%     65.81% |          43      5.29%     71.09% |          32      3.94%     75.03% |          87     10.70%     85.73% |          80      9.84%     95.57% |          27      3.32%     98.89% |           8      0.98%     99.88% |           1      0.12%    100.00% |           0      0.00%    100.00% |           0      0.00%    100.00%
system.ruby.ST.miss_latency_hist::total           813                      
system.ruby.IFETCH.latency_hist::bucket_size          256                      
system.ruby.IFETCH.latency_hist::max_bucket         2559                      
system.ruby.IFETCH.latency_hist::samples           56                      
system.ruby.IFETCH.latency_hist::mean      672.982143                      
system.ruby.IFETCH.latency_hist::gmean     614.909107                      
system.ruby.IFETCH.latency_hist::stdev     260.614623                      
system.ruby.IFETCH.latency_hist          |           4      7.14%      7.14% |           9     16.07%     23.21% |          24     42.86%     66.07% |          17     30.36%     96.43% |           1      1.79%     98.21% |           1      1.79%    100.00% |           0      0.00%    100.00% |           0      0.00%    100.00% |           0      0.00%    100.00% |           0      0.00%    100.00%
system.ruby.IFETCH.latency_hist::total             56                      
system.ruby.IFETCH.miss_latency_hist::bucket_size          256                      
system.ruby.IFETCH.miss_latency_hist::max_bucket         2559                      
system.ruby.IFETCH.miss_latency_hist::samples           56                      
system.ruby.IFETCH.miss_latency_hist::mean   672.982143                      
system.ruby.IFETCH.miss_latency_hist::gmean   614.909107                      
system.ruby.IFETCH.miss_latency_hist::stdev   260.614623                      
system.ruby.IFETCH.miss_latency_hist     |           4      7.14%      7.14% |           9     16.07%     23.21% |          24     42.86%     66.07% |          17     30.36%     96.43% |           1      1.79%     98.21% |           1      1.79%    100.00% |           0      0.00%    100.00% |           0      0.00%    100.00% |           0      0.00%    100.00% |           0      0.00%    100.00%
system.ruby.IFETCH.miss_latency_hist::total           56                      
system.ruby.L1Cache_Controller.Load                44      0.00%      0.00%
system.ruby.L1Cache_Controller.Ifetch             192      0.00%      0.00%
system.ruby.L1Cache_Controller.Store             1001      0.00%      0.00%
system.ruby.L1Cache_Controller.L1_Replacement       465203      0.00%      0.00%
system.ruby.L1Cache_Controller.Exclusive_Data          907      0.00%      0.00%
system.ruby.L1Cache_Controller.Writeback_Ack_Data          903      0.00%      0.00%
system.ruby.L1Cache_Controller.All_acks           813      0.00%      0.00%
system.ruby.L1Cache_Controller.Use_Timeout          905      0.00%      0.00%
system.ruby.L1Cache_Controller.I.Load              38      0.00%      0.00%
system.ruby.L1Cache_Controller.I.Ifetch            56      0.00%      0.00%
system.ruby.L1Cache_Controller.I.Store            814      0.00%      0.00%
system.ruby.L1Cache_Controller.M.L1_Replacement           92      0.00%      0.00%
system.ruby.L1Cache_Controller.M_W.L1_Replacement         1319      0.00%      0.00%
system.ruby.L1Cache_Controller.M_W.Use_Timeout           93      0.00%      0.00%
system.ruby.L1Cache_Controller.MM.Load              6      0.00%      0.00%
system.ruby.L1Cache_Controller.MM.Store            66      0.00%      0.00%
system.ruby.L1Cache_Controller.MM.L1_Replacement          811      0.00%      0.00%
system.ruby.L1Cache_Controller.MM_W.Store            6      0.00%      0.00%
system.ruby.L1Cache_Controller.MM_W.L1_Replacement        29843      0.00%      0.00%
system.ruby.L1Cache_Controller.MM_W.Use_Timeout          812      0.00%      0.00%
system.ruby.L1Cache_Controller.IM.L1_Replacement       399867      0.00%      0.00%
system.ruby.L1Cache_Controller.IM.Exclusive_Data          813      0.00%      0.00%
system.ruby.L1Cache_Controller.OM.L1_Replacement        17168      0.00%      0.00%
system.ruby.L1Cache_Controller.OM.All_acks          813      0.00%      0.00%
system.ruby.L1Cache_Controller.IS.L1_Replacement        16103      0.00%      0.00%
system.ruby.L1Cache_Controller.IS.Exclusive_Data           94      0.00%      0.00%
system.ruby.L1Cache_Controller.MI.Ifetch          136      0.00%      0.00%
system.ruby.L1Cache_Controller.MI.Store           115      0.00%      0.00%
system.ruby.L1Cache_Controller.MI.Writeback_Ack_Data          903      0.00%      0.00%
system.ruby.L2Cache_Controller.L1_GETS            127      0.00%      0.00%
system.ruby.L2Cache_Controller.L1_GETX            895      0.00%      0.00%
system.ruby.L2Cache_Controller.L1_PUTX           2308      0.00%      0.00%
system.ruby.L2Cache_Controller.All_Acks           766      0.00%      0.00%
system.ruby.L2Cache_Controller.Data               766      0.00%      0.00%
system.ruby.L2Cache_Controller.Data_Exclusive           88      0.00%      0.00%
system.ruby.L2Cache_Controller.L1_WBCLEANDATA           86      0.00%      0.00%
system.ruby.L2Cache_Controller.L1_WBDIRTYDATA          817      0.00%      0.00%
system.ruby.L2Cache_Controller.Writeback_Ack          845      0.00%      0.00%
system.ruby.L2Cache_Controller.Exclusive_Unblock          906      0.00%      0.00%
system.ruby.L2Cache_Controller.L2_Replacement          847      0.00%      0.00%
system.ruby.L2Cache_Controller.NP.L1_GETS           88      0.00%      0.00%
system.ruby.L2Cache_Controller.NP.L1_GETX          767      0.00%      0.00%
system.ruby.L2Cache_Controller.ILX.L1_PUTX          903      0.00%      0.00%
system.ruby.L2Cache_Controller.M.L1_GETS            6      0.00%      0.00%
system.ruby.L2Cache_Controller.M.L1_GETX           47      0.00%      0.00%
system.ruby.L2Cache_Controller.M.L2_Replacement          847      0.00%      0.00%
system.ruby.L2Cache_Controller.ILXW.L1_GETS           33      0.00%      0.00%
system.ruby.L2Cache_Controller.ILXW.L1_WBCLEANDATA           86      0.00%      0.00%
system.ruby.L2Cache_Controller.ILXW.L1_WBDIRTYDATA          817      0.00%      0.00%
system.ruby.L2Cache_Controller.IGS.L1_PUTX           65      0.00%      0.00%
system.ruby.L2Cache_Controller.IGS.Data_Exclusive           88      0.00%      0.00%
system.ruby.L2Cache_Controller.IGS.Exclusive_Unblock           87      0.00%      0.00%
system.ruby.L2Cache_Controller.IGM.Data           766      0.00%      0.00%
system.ruby.L2Cache_Controller.IGMO.L1_PUTX         1324      0.00%      0.00%
system.ruby.L2Cache_Controller.IGMO.All_Acks          766      0.00%      0.00%
system.ruby.L2Cache_Controller.IGMO.Exclusive_Unblock          766      0.00%      0.00%
system.ruby.L2Cache_Controller.MM.L1_PUTX            5      0.00%      0.00%
system.ruby.L2Cache_Controller.MM.Exclusive_Unblock           47      0.00%      0.00%
system.ruby.L2Cache_Controller.OO.L1_PUTX           11      0.00%      0.00%
system.ruby.L2Cache_Controller.OO.Exclusive_Unblock            6      0.00%      0.00%
system.ruby.L2Cache_Controller.MI.L1_GETX           81      0.00%      0.00%
system.ruby.L2Cache_Controller.MI.Writeback_Ack          845      0.00%      0.00%
system.ruby.Directory_Controller.GETX             837      0.00%      0.00%
system.ruby.Directory_Controller.GETS              88      0.00%      0.00%
system.ruby.Directory_Controller.PUTX             845      0.00%      0.00%
system.ruby.Directory_Controller.Exclusive_Unblock          852      0.00%      0.00%
system.ruby.Directory_Controller.Clean_Writeback           80      0.00%      0.00%
system.ruby.Directory_Controller.Dirty_Writeback          765      0.00%      0.00%
system.ruby.Directory_Controller.Memory_Data          854      0.00%      0.00%
system.ruby.Directory_Controller.Memory_Ack          765      0.00%      0.00%
system.ruby.Directory_Controller.I.GETX           766      0.00%      0.00%
system.ruby.Directory_Controller.I.GETS            88      0.00%      0.00%
system.ruby.Directory_Controller.I.Memory_Ack          760      0.00%      0.00%
system.ruby.Directory_Controller.M.PUTX           845      0.00%      0.00%
system.ruby.Directory_Controller.IS.Exclusive_Unblock           87      0.00%      0.00%
system.ruby.Directory_Controller.IS.Memory_Data           88      0.00%      0.00%
system.ruby.Directory_Controller.IS.Memory_Ack            1      0.00%      0.00%
system.ruby.Directory_Controller.MM.Exclusive_Unblock          765      0.00%      0.00%
system.ruby.Directory_Controller.MM.Memory_Data          766      0.00%      0.00%
system.ruby.Directory_Controller.MM.Memory_Ack            4      0.00%      0.00%
system.ruby.Directory_Controller.MI.GETX           71      0.00%      0.00%
system.ruby.Directory_Controller.MI.Clean_Writeback           80      0.00%      0.00%
system.ruby.Directory_Controller.MI.Dirty_Writeback          765      0.00%      0.00%

---------- End Simulation Statistics   ----------
