
---------- Begin Simulation Statistics ----------
sim_seconds                                  0.000054                       # Number of seconds simulated
sim_ticks                                       53711                       # Number of ticks simulated
final_tick                                      53711                       # Number of ticks from beginning of simulation (restored from checkpoints and never reset)
sim_freq                                   1000000000                       # Frequency of simulated ticks
host_tick_rate                                 508906                       # Simulator tick rate (ticks/s)
host_mem_usage                                 451636                       # Number of bytes of host memory used
host_seconds                                     0.11                       # Real time elapsed on the host
system.voltage_domain.voltage                       1                       # Voltage in Volts
system.clk_domain.clock                             1                       # Clock period in ticks
system.mem_ctrls.bytes_read::ruby.dir_cntrl0        54528                       # Number of bytes read from this memory
system.mem_ctrls.bytes_read::total              54528                       # Number of bytes read from this memory
system.mem_ctrls.bytes_written::ruby.dir_cntrl0        48448                       # Number of bytes written to this memory
system.mem_ctrls.bytes_written::total           48448                       # Number of bytes written to this memory
system.mem_ctrls.num_reads::ruby.dir_cntrl0          852                       # Number of read requests responded to by this memory
system.mem_ctrls.num_reads::total                 852                       # Number of read requests responded to by this memory
system.mem_ctrls.num_writes::ruby.dir_cntrl0          757                       # Number of write requests responded to by this memory
system.mem_ctrls.num_writes::total                757                       # Number of write requests responded to by this memory
system.mem_ctrls.bw_read::ruby.dir_cntrl0   1015211037                       # Total read bandwidth from this memory (bytes/s)
system.mem_ctrls.bw_read::total            1015211037                       # Total read bandwidth from this memory (bytes/s)
system.mem_ctrls.bw_write::ruby.dir_cntrl0    902012623                       # Write bandwidth from this memory (bytes/s)
system.mem_ctrls.bw_write::total            902012623                       # Write bandwidth from this memory (bytes/s)
system.mem_ctrls.bw_total::ruby.dir_cntrl0   1917223660                       # Total bandwidth to/from this memory (bytes/s)
system.mem_ctrls.bw_total::total           1917223660                       # Total bandwidth to/from this memory (bytes/s)
system.mem_ctrls.readReqs                         852                       # Number of read requests accepted
system.mem_ctrls.writeReqs                        757                       # Number of write requests accepted
system.mem_ctrls.readBursts                       852                       # Number of DRAM read bursts, including those serviced by the write queue
system.mem_ctrls.writeBursts                      757                       # Number of DRAM write bursts, including those merged in the write queue
system.mem_ctrls.bytesReadDRAM                  45632                       # Total number of bytes read from DRAM
system.mem_ctrls.bytesReadWrQ                    8896                       # Total number of bytes read from write queue
system.mem_ctrls.bytesWritten                   40448                       # Total number of bytes written to DRAM
system.mem_ctrls.bytesReadSys                   54528                       # Total read bytes from the system interface side
system.mem_ctrls.bytesWrittenSys                48448                       # Total written bytes from the system interface side
system.mem_ctrls.servicedByWrQ                    139                       # Number of DRAM read bursts serviced by the write queue
system.mem_ctrls.mergedWrBursts                    94                       # Number of DRAM write bursts merged with an existing one
system.mem_ctrls.neitherReadNorWriteReqs            0                       # Number of requests that are neither read nor write
system.mem_ctrls.perBankRdBursts::0               212                       # Per bank write bursts
system.mem_ctrls.perBankRdBursts::1               231                       # Per bank write bursts
system.mem_ctrls.perBankRdBursts::2               224                       # Per bank write bursts
system.mem_ctrls.perBankRdBursts::3                46                       # Per bank write bursts
system.mem_ctrls.perBankRdBursts::4                 0                       # Per bank write bursts
system.mem_ctrls.perBankRdBursts::5                 0                       # Per bank write bursts
system.mem_ctrls.perBankRdBursts::6                 0                       # Per bank write bursts
system.mem_ctrls.perBankRdBursts::7                 0                       # Per bank write bursts
system.mem_ctrls.perBankRdBursts::8                 0                       # Per bank write bursts
system.mem_ctrls.perBankRdBursts::9                 0                       # Per bank write bursts
system.mem_ctrls.perBankRdBursts::10                0                       # Per bank write bursts
system.mem_ctrls.perBankRdBursts::11                0                       # Per bank write bursts
system.mem_ctrls.perBankRdBursts::12                0                       # Per bank write bursts
system.mem_ctrls.perBankRdBursts::13                0                       # Per bank write bursts
system.mem_ctrls.perBankRdBursts::14                0                       # Per bank write bursts
system.mem_ctrls.perBankRdBursts::15                0                       # Per bank write bursts
system.mem_ctrls.perBankWrBursts::0               190                       # Per bank write bursts
system.mem_ctrls.perBankWrBursts::1               201                       # Per bank write bursts
system.mem_ctrls.perBankWrBursts::2               199                       # Per bank write bursts
system.mem_ctrls.perBankWrBursts::3                42                       # Per bank write bursts
system.mem_ctrls.perBankWrBursts::4                 0                       # Per bank write bursts
system.mem_ctrls.perBankWrBursts::5                 0                       # Per bank write bursts
system.mem_ctrls.perBankWrBursts::6                 0                       # Per bank write bursts
system.mem_ctrls.perBankWrBursts::7                 0                       # Per bank write bursts
system.mem_ctrls.perBankWrBursts::8                 0                       # Per bank write bursts
system.mem_ctrls.perBankWrBursts::9                 0                       # Per bank write bursts
system.mem_ctrls.perBankWrBursts::10                0                       # Per bank write bursts
system.mem_ctrls.perBankWrBursts::11                0                       # Per bank write bursts
system.mem_ctrls.perBankWrBursts::12                0                       # Per bank write bursts
system.mem_ctrls.perBankWrBursts::13                0                       # Per bank write bursts
system.mem_ctrls.perBankWrBursts::14                0                       # Per bank write bursts
system.mem_ctrls.perBankWrBursts::15                0                       # Per bank write bursts
system.mem_ctrls.numRdRetry                         0                       # Number of times read queue was full causing retry
system.mem_ctrls.numWrRetry                         0                       # Number of times write queue was full causing retry
system.mem_ctrls.totGap                         53660                       # Total gap between requests
system.mem_ctrls.readPktSize::0                     0                       # Read request sizes (log2)
system.mem_ctrls.readPktSize::1                     0                       # Read request sizes (log2)
system.mem_ctrls.readPktSize::2                     0                       # Read request sizes (log2)
system.mem_ctrls.readPktSize::3                     0                       # Read request sizes (log2)
system.mem_ctrls.readPktSize::4                     0                       # Read request sizes (log2)
system.mem_ctrls.readPktSize::5                     0                       # Read request sizes (log2)
system.mem_ctrls.readPktSize::6                   852                       # Read request sizes (log2)
system.mem_ctrls.writePktSize::0                    0                       # Write request sizes (log2)
system.mem_ctrls.writePktSize::1                    0                       # Write request sizes (log2)
system.mem_ctrls.writePktSize::2                    0                       # Write request sizes (log2)
system.mem_ctrls.writePktSize::3                    0                       # Write request sizes (log2)
system.mem_ctrls.writePktSize::4                    0                       # Write request sizes (log2)
system.mem_ctrls.writePktSize::5                    0                       # Write request sizes (log2)
system.mem_ctrls.writePktSize::6                  757                       # Write request sizes (log2)
system.mem_ctrls.rdQLenPdf::0                     567                       # What read queue length does an incoming req see
system.mem_ctrls.rdQLenPdf::1                     143                       # What read queue length does an incoming req see
system.mem_ctrls.rdQLenPdf::2                       3                       # What read queue length does an incoming req see
system.mem_ctrls.rdQLenPdf::3                       0                       # What read queue length does an incoming req see
system.mem_ctrls.rdQLenPdf::4                       0                       # What read queue length does an incoming req see
system.mem_ctrls.rdQLenPdf::5                       0                       # What read queue length does an incoming req see
system.mem_ctrls.rdQLenPdf::6                       0                       # What read queue length does an incoming req see
system.mem_ctrls.rdQLenPdf::7                       0                       # What read queue length does an incoming req see
system.mem_ctrls.rdQLenPdf::8                       0                       # What read queue length does an incoming req see
system.mem_ctrls.rdQLenPdf::9                       0                       # What read queue length does an incoming req see
system.mem_ctrls.rdQLenPdf::10                      0                       # What read queue length does an incoming req see
system.mem_ctrls.rdQLenPdf::11                      0                       # What read queue length does an incoming req see
system.mem_ctrls.rdQLenPdf::12                      0                       # What read queue length does an incoming req see
system.mem_ctrls.rdQLenPdf::13                      0                       # What read queue length does an incoming req see
system.mem_ctrls.rdQLenPdf::14                      0                       # What read queue length does an incoming req see
system.mem_ctrls.rdQLenPdf::15                      0                       # What read queue length does an incoming req see
system.mem_ctrls.rdQLenPdf::16                      0                       # What read queue length does an incoming req see
system.mem_ctrls.rdQLenPdf::17                      0                       # What read queue length does an incoming req see
system.mem_ctrls.rdQLenPdf::18                      0                       # What read queue length does an incoming req see
system.mem_ctrls.rdQLenPdf::19                      0                       # What read queue length does an incoming req see
system.mem_ctrls.rdQLenPdf::20                      0                       # What read queue length does an incoming req see
system.mem_ctrls.rdQLenPdf::21                      0                       # What read queue length does an incoming req see
system.mem_ctrls.rdQLenPdf::22                      0                       # What read queue length does an incoming req see
system.mem_ctrls.rdQLenPdf::23                      0                       # What read queue length does an incoming req see
system.mem_ctrls.rdQLenPdf::24                      0                       # What read queue length does an incoming req see
system.mem_ctrls.rdQLenPdf::25                      0                       # What read queue length does an incoming req see
system.mem_ctrls.rdQLenPdf::26                      0                       # What read queue length does an incoming req see
system.mem_ctrls.rdQLenPdf::27                      0                       # What read queue length does an incoming req see
system.mem_ctrls.rdQLenPdf::28                      0                       # What read queue length does an incoming req see
system.mem_ctrls.rdQLenPdf::29                      0                       # What read queue length does an incoming req see
system.mem_ctrls.rdQLenPdf::30                      0                       # What read queue length does an incoming req see
system.mem_ctrls.rdQLenPdf::31                      0                       # What read queue length does an incoming req see
system.mem_ctrls.wrQLenPdf::0                       1                       # What write queue length does an incoming req see
system.mem_ctrls.wrQLenPdf::1                       1                       # What write queue length does an incoming req see
system.mem_ctrls.wrQLenPdf::2                       1                       # What write queue length does an incoming req see
system.mem_ctrls.wrQLenPdf::3                       1                       # What write queue length does an incoming req see
system.mem_ctrls.wrQLenPdf::4                       1                       # What write queue length does an incoming req see
system.mem_ctrls.wrQLenPdf::5                       1                       # What write queue length does an incoming req see
system.mem_ctrls.wrQLenPdf::6                       1                       # What write queue length does an incoming req see
system.mem_ctrls.wrQLenPdf::7                       1                       # What write queue length does an incoming req see
system.mem_ctrls.wrQLenPdf::8                       1                       # What write queue length does an incoming req see
system.mem_ctrls.wrQLenPdf::9                       1                       # What write queue length does an incoming req see
system.mem_ctrls.wrQLenPdf::10                      1                       # What write queue length does an incoming req see
system.mem_ctrls.wrQLenPdf::11                      1                       # What write queue length does an incoming req see
system.mem_ctrls.wrQLenPdf::12                      1                       # What write queue length does an incoming req see
system.mem_ctrls.wrQLenPdf::13                      1                       # What write queue length does an incoming req see
system.mem_ctrls.wrQLenPdf::14                      1                       # What write queue length does an incoming req see
system.mem_ctrls.wrQLenPdf::15                     23                       # What write queue length does an incoming req see
system.mem_ctrls.wrQLenPdf::16                     24                       # What write queue length does an incoming req see
system.mem_ctrls.wrQLenPdf::17                     38                       # What write queue length does an incoming req see
system.mem_ctrls.wrQLenPdf::18                     37                       # What write queue length does an incoming req see
system.mem_ctrls.wrQLenPdf::19                     38                       # What write queue length does an incoming req see
system.mem_ctrls.wrQLenPdf::20                     37                       # What write queue length does an incoming req see
system.mem_ctrls.wrQLenPdf::21                     38                       # What write queue length does an incoming req see
system.mem_ctrls.wrQLenPdf::22                     37                       # What write queue length does an incoming req see
system.mem_ctrls.wrQLenPdf::23                     38                       # What write queue length does an incoming req see
system.mem_ctrls.wrQLenPdf::24                     37                       # What write queue length does an incoming req see
system.mem_ctrls.wrQLenPdf::25                     39                       # What write queue length does an incoming req see
system.mem_ctrls.wrQLenPdf::26                     38                       # What write queue length does an incoming req see
system.mem_ctrls.wrQLenPdf::27                     37                       # What write queue length does an incoming req see
system.mem_ctrls.wrQLenPdf::28                     38                       # What write queue length does an incoming req see
system.mem_ctrls.wrQLenPdf::29                     37                       # What write queue length does an incoming req see
system.mem_ctrls.wrQLenPdf::30                     37                       # What write queue length does an incoming req see
system.mem_ctrls.wrQLenPdf::31                     36                       # What write queue length does an incoming req see
system.mem_ctrls.wrQLenPdf::32                     36                       # What write queue length does an incoming req see
system.mem_ctrls.wrQLenPdf::33                      2                       # What write queue length does an incoming req see
system.mem_ctrls.wrQLenPdf::34                      1                       # What write queue length does an incoming req see
system.mem_ctrls.wrQLenPdf::35                      0                       # What write queue length does an incoming req see
system.mem_ctrls.wrQLenPdf::36                      0                       # What write queue length does an incoming req see
system.mem_ctrls.wrQLenPdf::37                      0                       # What write queue length does an incoming req see
system.mem_ctrls.wrQLenPdf::38                      0                       # What write queue length does an incoming req see
system.mem_ctrls.wrQLenPdf::39                      0                       # What write queue length does an incoming req see
system.mem_ctrls.wrQLenPdf::40                      0                       # What write queue length does an incoming req see
system.mem_ctrls.wrQLenPdf::41                      0                       # What write queue length does an incoming req see
system.mem_ctrls.wrQLenPdf::42                      0                       # What write queue length does an incoming req see
system.mem_ctrls.wrQLenPdf::43                      0                       # What write queue length does an incoming req see
system.mem_ctrls.wrQLenPdf::44                      0                       # What write queue length does an incoming req see
system.mem_ctrls.wrQLenPdf::45                      0                       # What write queue length does an incoming req see
system.mem_ctrls.wrQLenPdf::46                      0                       # What write queue length does an incoming req see
system.mem_ctrls.wrQLenPdf::47                      0                       # What write queue length does an incoming req see
system.mem_ctrls.wrQLenPdf::48                      0                       # What write queue length does an incoming req see
system.mem_ctrls.wrQLenPdf::49                      0                       # What write queue length does an incoming req see
system.mem_ctrls.wrQLenPdf::50                      0                       # What write queue length does an incoming req see
system.mem_ctrls.wrQLenPdf::51                      0                       # What write queue length does an incoming req see
system.mem_ctrls.wrQLenPdf::52                      0                       # What write queue length does an incoming req see
system.mem_ctrls.wrQLenPdf::53                      0                       # What write queue length does an incoming req see
system.mem_ctrls.wrQLenPdf::54                      0                       # What write queue length does an incoming req see
system.mem_ctrls.wrQLenPdf::55                      0                       # What write queue length does an incoming req see
system.mem_ctrls.wrQLenPdf::56                      0                       # What write queue length does an incoming req see
system.mem_ctrls.wrQLenPdf::57                      0                       # What write queue length does an incoming req see
system.mem_ctrls.wrQLenPdf::58                      0                       # What write queue length does an incoming req see
system.mem_ctrls.wrQLenPdf::59                      0                       # What write queue length does an incoming req see
system.mem_ctrls.wrQLenPdf::60                      0                       # What write queue length does an incoming req see
system.mem_ctrls.wrQLenPdf::61                      0                       # What write queue length does an incoming req see
system.mem_ctrls.wrQLenPdf::62                      0                       # What write queue length does an incoming req see
system.mem_ctrls.wrQLenPdf::63                      0                       # What write queue length does an incoming req see
system.mem_ctrls.bytesPerActivate::samples           94                       # Bytes accessed per row activation
system.mem_ctrls.bytesPerActivate::mean    889.191489                       # Bytes accessed per row activation
system.mem_ctrls.bytesPerActivate::gmean   796.949082                       # Bytes accessed per row activation
system.mem_ctrls.bytesPerActivate::stdev   278.173972                       # Bytes accessed per row activation
system.mem_ctrls.bytesPerActivate::0-127            2      2.13%      2.13% # Bytes accessed per row activation
system.mem_ctrls.bytesPerActivate::128-255            4      4.26%      6.38% # Bytes accessed per row activation
system.mem_ctrls.bytesPerActivate::256-383            5      5.32%     11.70% # Bytes accessed per row activation
system.mem_ctrls.bytesPerActivate::384-511            3      3.19%     14.89% # Bytes accessed per row activation
system.mem_ctrls.bytesPerActivate::512-639            1      1.06%     15.96% # Bytes accessed per row activation
system.mem_ctrls.bytesPerActivate::640-767            2      2.13%     18.09% # Bytes accessed per row activation
system.mem_ctrls.bytesPerActivate::768-895            2      2.13%     20.21% # Bytes accessed per row activation
system.mem_ctrls.bytesPerActivate::896-1023            5      5.32%     25.53% # Bytes accessed per row activation
system.mem_ctrls.bytesPerActivate::1024-1151           70     74.47%    100.00% # Bytes accessed per row activation
system.mem_ctrls.bytesPerActivate::total           94                       # Bytes accessed per row activation
system.mem_ctrls.rdPerTurnAround::samples           36                       # Reads before turning the bus around for writes
system.mem_ctrls.rdPerTurnAround::mean      19.277778                       # Reads before turning the bus around for writes
system.mem_ctrls.rdPerTurnAround::gmean     18.954063                       # Reads before turning the bus around for writes
system.mem_ctrls.rdPerTurnAround::stdev      4.046947                       # Reads before turning the bus around for writes
system.mem_ctrls.rdPerTurnAround::14-15             3      8.33%      8.33% # Reads before turning the bus around for writes
system.mem_ctrls.rdPerTurnAround::16-17             9     25.00%     33.33% # Reads before turning the bus around for writes
system.mem_ctrls.rdPerTurnAround::18-19            11     30.56%     63.89% # Reads before turning the bus around for writes
system.mem_ctrls.rdPerTurnAround::20-21             5     13.89%     77.78% # Reads before turning the bus around for writes
system.mem_ctrls.rdPerTurnAround::22-23             6     16.67%     94.44% # Reads before turning the bus around for writes
system.mem_ctrls.rdPerTurnAround::24-25             1      2.78%     97.22% # Reads before turning the bus around for writes
system.mem_ctrls.rdPerTurnAround::38-39             1      2.78%    100.00% # Reads before turning the bus around for writes
system.mem_ctrls.rdPerTurnAround::total            36                       # Reads before turning the bus around for writes
system.mem_ctrls.wrPerTurnAround::samples           36                       # Writes before turning the bus around for reads
system.mem_ctrls.wrPerTurnAround::mean      17.555556                       # Writes before turning the bus around for reads
system.mem_ctrls.wrPerTurnAround::gmean     17.508645                       # Writes before turning the bus around for reads
system.mem_ctrls.wrPerTurnAround::stdev      1.297127                       # Writes before turning the bus around for reads
system.mem_ctrls.wrPerTurnAround::16               13     36.11%     36.11% # Writes before turning the bus around for reads
system.mem_ctrls.wrPerTurnAround::17                1      2.78%     38.89% # Writes before turning the bus around for reads
system.mem_ctrls.wrPerTurnAround::18               12     33.33%     72.22% # Writes before turning the bus around for reads
system.mem_ctrls.wrPerTurnAround::19                9     25.00%     97.22% # Writes before turning the bus around for reads
system.mem_ctrls.wrPerTurnAround::20                1      2.78%    100.00% # Writes before turning the bus around for reads
system.mem_ctrls.wrPerTurnAround::total            36                       # Writes before turning the bus around for reads
system.mem_ctrls.totQLat                         5835                       # Total ticks spent queuing
system.mem_ctrls.totMemAccLat                   19382                       # Total ticks spent from burst creation until serviced by the DRAM
system.mem_ctrls.totBusLat                       3565                       # Total ticks spent in databus transfers
system.mem_ctrls.avgQLat                         8.18                       # Average queueing delay per DRAM burst
system.mem_ctrls.avgBusLat                       5.00                       # Average bus latency per DRAM burst
system.mem_ctrls.avgMemAccLat                   27.18                       # Average memory access latency per DRAM burst
system.mem_ctrls.avgRdBW                       849.58                       # Average DRAM read bandwidth in MiByte/s
system.mem_ctrls.avgWrBW                       753.07                       # Average achieved write bandwidth in MiByte/s
system.mem_ctrls.avgRdBWSys                   1015.21                       # Average system read bandwidth in MiByte/s
system.mem_ctrls.avgWrBWSys                    902.01                       # Average system write bandwidth in MiByte/s
system.mem_ctrls.peakBW                      12800.00                       # Theoretical peak bandwidth in MiByte/s
system.mem_ctrls.busUtil                        12.52                       # Data bus utilization in percentage
system.mem_ctrls.busUtilRead                     6.64                       # Data bus utilization in percentage for reads
system.mem_ctrls.busUtilWrite                    5.88                       # Data bus utilization in percentage for writes
system.mem_ctrls.avgRdQLen                       1.35                       # Average read queue length when enqueuing
system.mem_ctrls.avgWrQLen                      24.46                       # Average write queue length when enqueuing
system.mem_ctrls.readRowHits                      622                       # Number of row buffer hits during reads
system.mem_ctrls.writeRowHits                     625                       # Number of row buffer hits during writes
system.mem_ctrls.readRowHitRate                 87.24                       # Row buffer hit rate for reads
system.mem_ctrls.writeRowHitRate                94.27                       # Row buffer hit rate for writes
system.mem_ctrls.avgGap                         33.35                       # Average gap between requests
system.mem_ctrls.pageHitRate                    90.62                       # Row buffer hit rate, read and write combined
system.mem_ctrls_0.actEnergy                   650160                       # Energy for activate commands per rank (pJ)
system.mem_ctrls_0.preEnergy                   361200                       # Energy for precharge commands per rank (pJ)
system.mem_ctrls_0.readEnergy                 7700160                       # Energy for read commands per rank (pJ)
system.mem_ctrls_0.writeEnergy                5816448                       # Energy for write commands per rank (pJ)
system.mem_ctrls_0.refreshEnergy              3051360                       # Energy for refresh commands per rank (pJ)
system.mem_ctrls_0.actBackEnergy             32013252                       # Energy for active background per rank (pJ)
system.mem_ctrls_0.preBackEnergy               103800                       # Energy for precharge background per rank (pJ)
system.mem_ctrls_0.totalEnergy               49696380                       # Total energy per rank (pJ)
system.mem_ctrls_0.averagePower           1057.909997                       # Core power per rank (mW)
system.mem_ctrls_0.memoryStateTime::IDLE           19                       # Time in different power states
system.mem_ctrls_0.memoryStateTime::REF          1560                       # Time in different power states
system.mem_ctrls_0.memoryStateTime::PRE_PDN            0                       # Time in different power states
system.mem_ctrls_0.memoryStateTime::ACT         45411                       # Time in different power states
system.mem_ctrls_0.memoryStateTime::ACT_PDN            0                       # Time in different power states
system.mem_ctrls_1.actEnergy                        0                       # Energy for activate commands per rank (pJ)
system.mem_ctrls_1.preEnergy                        0                       # Energy for precharge commands per rank (pJ)
system.mem_ctrls_1.readEnergy                       0                       # Energy for read commands per rank (pJ)
system.mem_ctrls_1.writeEnergy                      0                       # Energy for write commands per rank (pJ)
system.mem_ctrls_1.refreshEnergy              3051360                       # Energy for refresh commands per rank (pJ)
system.mem_ctrls_1.actBackEnergy              1009584                       # Energy for active background per rank (pJ)
system.mem_ctrls_1.preBackEnergy             27291600                       # Energy for precharge background per rank (pJ)
system.mem_ctrls_1.totalEnergy               31352544                       # Total energy per rank (pJ)
system.mem_ctrls_1.averagePower            667.615178                       # Core power per rank (mW)
system.mem_ctrls_1.memoryStateTime::IDLE        45416                       # Time in different power states
system.mem_ctrls_1.memoryStateTime::REF          1560                       # Time in different power states
system.mem_ctrls_1.memoryStateTime::PRE_PDN            0                       # Time in different power states
system.mem_ctrls_1.memoryStateTime::ACT             0                       # Time in different power states
system.mem_ctrls_1.memoryStateTime::ACT_PDN            0                       # Time in different power states
system.ruby.clk_domain.clock                        1                       # Clock period in ticks
system.ruby.outstanding_req_hist::bucket_size            2                      
system.ruby.outstanding_req_hist::max_bucket           19                      
system.ruby.outstanding_req_hist::samples          972                      
system.ruby.outstanding_req_hist::mean      15.762346                      
system.ruby.outstanding_req_hist::gmean     15.655254                      
system.ruby.outstanding_req_hist::stdev      1.201656                      
system.ruby.outstanding_req_hist         |           1      0.10%      0.10% |           2      0.21%      0.31% |           2      0.21%      0.51% |           2      0.21%      0.72% |           4      0.41%      1.13% |           2      0.21%      1.34% |           3      0.31%      1.65% |          94      9.67%     11.32% |         862     88.68%    100.00% |           0      0.00%    100.00%
system.ruby.outstanding_req_hist::total           972                      
system.ruby.latency_hist::bucket_size             256                      
system.ruby.latency_hist::max_bucket             2559                      
system.ruby.latency_hist::samples                 957                      
system.ruby.latency_hist::mean             881.794148                      
system.ruby.latency_hist::gmean            495.949804                      
system.ruby.latency_hist::stdev            359.464211                      
system.ruby.latency_hist                 |         135     14.11%     14.11% |           6      0.63%     14.73% |           4      0.42%     15.15% |         442     46.19%     61.34% |         349     36.47%     97.81% |          21      2.19%    100.00% |           0      0.00%    100.00% |           0      0.00%    100.00% |           0      0.00%    100.00% |           0      0.00%    100.00%
system.ruby.latency_hist::total                   957                      
system.ruby.hit_latency_hist::bucket_size            1                      
system.ruby.hit_latency_hist::max_bucket            9                      
system.ruby.hit_latency_hist::samples              75                      
system.ruby.hit_latency_hist::mean                  1                      
system.ruby.hit_latency_hist::gmean                 1                      
system.ruby.hit_latency_hist             |           0      0.00%      0.00% |          75    100.00%    100.00% |           0      0.00%    100.00% |           0      0.00%    100.00% |           0      0.00%    100.00% |           0      0.00%    100.00% |           0      0.00%    100.00% |           0      0.00%    100.00% |           0      0.00%    100.00% |           0      0.00%    100.00%
system.ruby.hit_latency_hist::total                75                      
system.ruby.miss_latency_hist::bucket_size          256                      
system.ruby.miss_latency_hist::max_bucket         2559                      
system.ruby.miss_latency_hist::samples            882                      
system.ruby.miss_latency_hist::mean        956.691610                      
system.ruby.miss_latency_hist::gmean       840.701090                      
system.ruby.miss_latency_hist::stdev       261.829138                      
system.ruby.miss_latency_hist            |          60      6.80%      6.80% |           6      0.68%      7.48% |           4      0.45%      7.94% |         442     50.11%     58.05% |         349     39.57%     97.62% |          21      2.38%    100.00% |           0      0.00%    100.00% |           0      0.00%    100.00% |           0      0.00%    100.00% |           0      0.00%    100.00%
system.ruby.miss_latency_hist::total              882                      
system.ruby.l1_cntrl0.L1Dcache.demand_hits           75                       # Number of cache demand hits
system.ruby.l1_cntrl0.L1Dcache.demand_misses          832                       # Number of cache demand misses
system.ruby.l1_cntrl0.L1Dcache.demand_accesses          907                       # Number of cache demand accesses
system.ruby.l1_cntrl0.L1Icache.demand_hits            0                       # Number of cache demand hits
system.ruby.l1_cntrl0.L1Icache.demand_misses           50                       # Number of cache demand misses
system.ruby.l1_cntrl0.L1Icache.demand_accesses           50                       # Number of cache demand accesses
system.ruby.l1_cntrl0.sequencer.store_waiting_on_load            3                       # Number of times a store aliased with a pending load
system.ruby.l1_cntrl0.sequencer.store_waiting_on_store           76                       # Number of times a store aliased with a pending store
system.ruby.l1_cntrl0.sequencer.load_waiting_on_store            3                       # Number of times a load aliased with a pending store
system.ruby.l2_cntrl0.L2cache.demand_hits           30                       # Number of cache demand hits
system.ruby.l2_cntrl0.L2cache.demand_misses          852                       # Number of cache demand misses
system.ruby.l2_cntrl0.L2cache.demand_accesses          882                       # Number of cache demand accesses
system.ruby.memctrl_clk_domain.clock                3                       # Clock period in ticks
system.ruby.network.routers0.percent_links_utilized     9.006070                      
system.ruby.network.routers0.msg_count.Request_Control::0          882                      
system.ruby.network.routers0.msg_count.Response_Data::2          852                      
system.ruby.network.routers0.msg_count.ResponseL2hit_Data::2           30                      
system.ruby.network.routers0.msg_count.Writeback_Data::2          877                      
system.ruby.network.routers0.msg_count.Writeback_Control::0         1754                      
system.ruby.network.routers0.msg_count.Unblock_Control::2          882                      
system.ruby.network.routers0.msg_bytes.Request_Control::0         7056                      
system.ruby.network.routers0.msg_bytes.Response_Data::2        61344                      
system.ruby.network.routers0.msg_bytes.ResponseL2hit_Data::2         2160                      
system.ruby.network.routers0.msg_bytes.Writeback_Data::2        63144                      
system.ruby.network.routers0.msg_bytes.Writeback_Control::0        14032                      
system.ruby.network.routers0.msg_bytes.Unblock_Control::2         7056                      
system.ruby.network.routers1.percent_links_utilized    17.246933                      
system.ruby.network.routers1.msg_count.Request_Control::0          882                      
system.ruby.network.routers1.msg_count.Request_Control::1          852                      
system.ruby.network.routers1.msg_count.Response_Data::2         1704                      
system.ruby.network.routers1.msg_count.ResponseL2hit_Data::2           30                      
system.ruby.network.routers1.msg_count.Writeback_Data::2         1635                      
system.ruby.network.routers1.msg_count.Writeback_Control::0         1754                      
system.ruby.network.routers1.msg_count.Writeback_Control::1         1516                      
system.ruby.network.routers1.msg_count.Unblock_Control::2         1732                      
system.ruby.network.routers1.msg_bytes.Request_Control::0         7056                      
system.ruby.network.routers1.msg_bytes.Request_Control::1         6816                      
system.ruby.network.routers1.msg_bytes.Response_Data::2       122688                      
system.ruby.network.routers1.msg_bytes.ResponseL2hit_Data::2         2160                      
system.ruby.network.routers1.msg_bytes.Writeback_Data::2       117720                      
system.ruby.network.routers1.msg_bytes.Writeback_Control::0        14032                      
system.ruby.network.routers1.msg_bytes.Writeback_Control::1        12128                      
system.ruby.network.routers1.msg_bytes.Unblock_Control::2        13856                      
system.ruby.network.routers2.percent_links_utilized     8.238536                      
system.ruby.network.routers2.msg_count.Request_Control::1          852                      
system.ruby.network.routers2.msg_count.Response_Data::2          852                      
system.ruby.network.routers2.msg_count.Writeback_Data::2          757                      
system.ruby.network.routers2.msg_count.Writeback_Control::1         1516                      
system.ruby.network.routers2.msg_count.Unblock_Control::2          851                      
system.ruby.network.routers2.msg_bytes.Request_Control::1         6816                      
system.ruby.network.routers2.msg_bytes.Response_Data::2        61344                      
system.ruby.network.routers2.msg_bytes.Writeback_Data::2        54504                      
system.ruby.network.routers2.msg_bytes.Writeback_Control::1        12128                      
system.ruby.network.routers2.msg_bytes.Unblock_Control::2         6808                      
system.ruby.network.routers3.percent_links_utilized    11.497024                      
system.ruby.network.routers3.msg_count.Request_Control::0          882                      
system.ruby.network.routers3.msg_count.Request_Control::1          852                      
system.ruby.network.routers3.msg_count.Response_Data::2         1704                      
system.ruby.network.routers3.msg_count.ResponseL2hit_Data::2           30                      
system.ruby.network.routers3.msg_count.Writeback_Data::2         1635                      
system.ruby.network.routers3.msg_count.Writeback_Control::0         1754                      
system.ruby.network.routers3.msg_count.Writeback_Control::1         1516                      
system.ruby.network.routers3.msg_count.Unblock_Control::2         1733                      
system.ruby.network.routers3.msg_bytes.Request_Control::0         7056                      
system.ruby.network.routers3.msg_bytes.Request_Control::1         6816                      
system.ruby.network.routers3.msg_bytes.Response_Data::2       122688                      
system.ruby.network.routers3.msg_bytes.ResponseL2hit_Data::2         2160                      
system.ruby.network.routers3.msg_bytes.Writeback_Data::2       117720                      
system.ruby.network.routers3.msg_bytes.Writeback_Control::0        14032                      
system.ruby.network.routers3.msg_bytes.Writeback_Control::1        12128                      
system.ruby.network.routers3.msg_bytes.Unblock_Control::2        13864                      
system.ruby.network.msg_count.Request_Control         5202                      
system.ruby.network.msg_count.Response_Data         5112                      
system.ruby.network.msg_count.ResponseL2hit_Data           90                      
system.ruby.network.msg_count.Writeback_Data         4904                      
system.ruby.network.msg_count.Writeback_Control         9810                      
system.ruby.network.msg_count.Unblock_Control         5198                      
system.ruby.network.msg_byte.Request_Control        41616                      
system.ruby.network.msg_byte.Response_Data       368064                      
system.ruby.network.msg_byte.ResponseL2hit_Data         6480                      
system.ruby.network.msg_byte.Writeback_Data       353088                      
system.ruby.network.msg_byte.Writeback_Control        78480                      
system.ruby.network.msg_byte.Unblock_Control        41584                      
system.ruby.network.routers0.throttle0.link_utilization     8.205954                      
system.ruby.network.routers0.throttle0.msg_count.Response_Data::2          852                      
system.ruby.network.routers0.throttle0.msg_count.ResponseL2hit_Data::2           30                      
system.ruby.network.routers0.throttle0.msg_count.Writeback_Control::0          877                      
system.ruby.network.routers0.throttle0.msg_bytes.Response_Data::2        61344                      
system.ruby.network.routers0.throttle0.msg_bytes.ResponseL2hit_Data::2         2160                      
system.ruby.network.routers0.throttle0.msg_bytes.Writeback_Control::0         7016                      
system.ruby.network.routers0.throttle1.link_utilization     9.806185                      
system.ruby.network.routers0.throttle1.msg_count.Request_Control::0          882                      
system.ruby.network.routers0.throttle1.msg_count.Writeback_Data::2          877                      
system.ruby.network.routers0.throttle1.msg_count.Writeback_Control::0          877                      
system.ruby.network.routers0.throttle1.msg_count.Unblock_Control::2          882                      
system.ruby.network.routers0.throttle1.msg_bytes.Request_Control::0         7056                      
system.ruby.network.routers0.throttle1.msg_bytes.Writeback_Data::2        63144                      
system.ruby.network.routers0.throttle1.msg_bytes.Writeback_Control::0         7016                      
system.ruby.network.routers0.throttle1.msg_bytes.Unblock_Control::2         7056                      
system.ruby.network.routers1.throttle0.link_utilization    17.649085                      
system.ruby.network.routers1.throttle0.msg_count.Request_Control::0          882                      
system.ruby.network.routers1.throttle0.msg_count.Response_Data::2          852                      
system.ruby.network.routers1.throttle0.msg_count.Writeback_Data::2          877                      
system.ruby.network.routers1.throttle0.msg_count.Writeback_Control::0          877                      
system.ruby.network.routers1.throttle0.msg_count.Writeback_Control::1          758                      
system.ruby.network.routers1.throttle0.msg_count.Unblock_Control::2          881                      
system.ruby.network.routers1.throttle0.msg_bytes.Request_Control::0         7056                      
system.ruby.network.routers1.throttle0.msg_bytes.Response_Data::2        61344                      
system.ruby.network.routers1.throttle0.msg_bytes.Writeback_Data::2        63144                      
system.ruby.network.routers1.throttle0.msg_bytes.Writeback_Control::0         7016                      
system.ruby.network.routers1.throttle0.msg_bytes.Writeback_Control::1         6064                      
system.ruby.network.routers1.throttle0.msg_bytes.Unblock_Control::2         7048                      
system.ruby.network.routers1.throttle1.link_utilization    16.844780                      
system.ruby.network.routers1.throttle1.msg_count.Request_Control::1          852                      
system.ruby.network.routers1.throttle1.msg_count.Response_Data::2          852                      
system.ruby.network.routers1.throttle1.msg_count.ResponseL2hit_Data::2           30                      
system.ruby.network.routers1.throttle1.msg_count.Writeback_Data::2          758                      
system.ruby.network.routers1.throttle1.msg_count.Writeback_Control::0          877                      
system.ruby.network.routers1.throttle1.msg_count.Writeback_Control::1          758                      
system.ruby.network.routers1.throttle1.msg_count.Unblock_Control::2          851                      
system.ruby.network.routers1.throttle1.msg_bytes.Request_Control::1         6816                      
system.ruby.network.routers1.throttle1.msg_bytes.Response_Data::2        61344                      
system.ruby.network.routers1.throttle1.msg_bytes.ResponseL2hit_Data::2         2160                      
system.ruby.network.routers1.throttle1.msg_bytes.Writeback_Data::2        54576                      
system.ruby.network.routers1.throttle1.msg_bytes.Writeback_Control::0         7016                      
system.ruby.network.routers1.throttle1.msg_bytes.Writeback_Control::1         6064                      
system.ruby.network.routers1.throttle1.msg_bytes.Unblock_Control::2         6808                      
system.ruby.network.routers2.throttle0.link_utilization     8.633241                      
system.ruby.network.routers2.throttle0.msg_count.Request_Control::1          852                      
system.ruby.network.routers2.throttle0.msg_count.Writeback_Data::2          757                      
system.ruby.network.routers2.throttle0.msg_count.Writeback_Control::1          758                      
system.ruby.network.routers2.throttle0.msg_count.Unblock_Control::2          851                      
system.ruby.network.routers2.throttle0.msg_bytes.Request_Control::1         6816                      
system.ruby.network.routers2.throttle0.msg_bytes.Writeback_Data::2        54504                      
system.ruby.network.routers2.throttle0.msg_bytes.Writeback_Control::1         6064                      
system.ruby.network.routers2.throttle0.msg_bytes.Unblock_Control::2         6808                      
system.ruby.network.routers2.throttle1.link_utilization     7.843831                      
system.ruby.network.routers2.throttle1.msg_count.Response_Data::2          852                      
system.ruby.network.routers2.throttle1.msg_count.Writeback_Control::1          758                      
system.ruby.network.routers2.throttle1.msg_bytes.Response_Data::2        61344                      
system.ruby.network.routers2.throttle1.msg_bytes.Writeback_Control::1         6064                      
system.ruby.network.routers3.throttle0.link_utilization     8.205954                      
system.ruby.network.routers3.throttle0.msg_count.Response_Data::2          852                      
system.ruby.network.routers3.throttle0.msg_count.ResponseL2hit_Data::2           30                      
system.ruby.network.routers3.throttle0.msg_count.Writeback_Control::0          877                      
system.ruby.network.routers3.throttle0.msg_bytes.Response_Data::2        61344                      
system.ruby.network.routers3.throttle0.msg_bytes.ResponseL2hit_Data::2         2160                      
system.ruby.network.routers3.throttle0.msg_bytes.Writeback_Control::0         7016                      
system.ruby.network.routers3.throttle1.link_utilization    17.650016                      
system.ruby.network.routers3.throttle1.msg_count.Request_Control::0          882                      
system.ruby.network.routers3.throttle1.msg_count.Response_Data::2          852                      
system.ruby.network.routers3.throttle1.msg_count.Writeback_Data::2          877                      
system.ruby.network.routers3.throttle1.msg_count.Writeback_Control::0          877                      
system.ruby.network.routers3.throttle1.msg_count.Writeback_Control::1          758                      
system.ruby.network.routers3.throttle1.msg_count.Unblock_Control::2          882                      
system.ruby.network.routers3.throttle1.msg_bytes.Request_Control::0         7056                      
system.ruby.network.routers3.throttle1.msg_bytes.Response_Data::2        61344                      
system.ruby.network.routers3.throttle1.msg_bytes.Writeback_Data::2        63144                      
system.ruby.network.routers3.throttle1.msg_bytes.Writeback_Control::0         7016                      
system.ruby.network.routers3.throttle1.msg_bytes.Writeback_Control::1         6064                      
system.ruby.network.routers3.throttle1.msg_bytes.Unblock_Control::2         7056                      
system.ruby.network.routers3.throttle2.link_utilization     8.635103                      
system.ruby.network.routers3.throttle2.msg_count.Request_Control::1          852                      
system.ruby.network.routers3.throttle2.msg_count.Writeback_Data::2          758                      
system.ruby.network.routers3.throttle2.msg_count.Writeback_Control::1          758                      
system.ruby.network.routers3.throttle2.msg_count.Unblock_Control::2          851                      
system.ruby.network.routers3.throttle2.msg_bytes.Request_Control::1         6816                      
system.ruby.network.routers3.throttle2.msg_bytes.Writeback_Data::2        54576                      
system.ruby.network.routers3.throttle2.msg_bytes.Writeback_Control::1         6064                      
system.ruby.network.routers3.throttle2.msg_bytes.Unblock_Control::2         6808                      
system.ruby.LD.latency_hist::bucket_size          256                      
system.ruby.LD.latency_hist::max_bucket          2559                      
system.ruby.LD.latency_hist::samples               50                      
system.ruby.LD.latency_hist::mean          914.500000                      
system.ruby.LD.latency_hist::gmean         544.079764                      
system.ruby.LD.latency_hist::stdev         318.769653                      
system.ruby.LD.latency_hist              |           5     10.00%     10.00% |           0      0.00%     10.00% |           0      0.00%     10.00% |          30     60.00%     70.00% |          13     26.00%     96.00% |           2      4.00%    100.00% |           0      0.00%    100.00% |           0      0.00%    100.00% |           0      0.00%    100.00% |           0      0.00%    100.00%
system.ruby.LD.latency_hist::total                 50                      
system.ruby.LD.hit_latency_hist::bucket_size            1                      
system.ruby.LD.hit_latency_hist::max_bucket            9                      
system.ruby.LD.hit_latency_hist::samples            4                      
system.ruby.LD.hit_latency_hist::mean               1                      
system.ruby.LD.hit_latency_hist::gmean              1                      
system.ruby.LD.hit_latency_hist          |           0      0.00%      0.00% |           4    100.00%    100.00% |           0      0.00%    100.00% |           0      0.00%    100.00% |           0      0.00%    100.00% |           0      0.00%    100.00% |           0      0.00%    100.00% |           0      0.00%    100.00% |           0      0.00%    100.00% |           0      0.00%    100.00%
system.ruby.LD.hit_latency_hist::total              4                      
system.ruby.LD.miss_latency_hist::bucket_size          256                      
system.ruby.LD.miss_latency_hist::max_bucket         2559                      
system.ruby.LD.miss_latency_hist::samples           46                      
system.ruby.LD.miss_latency_hist::mean     993.934783                      
system.ruby.LD.miss_latency_hist::gmean    940.906082                      
system.ruby.LD.miss_latency_hist::stdev    173.263243                      
system.ruby.LD.miss_latency_hist         |           1      2.17%      2.17% |           0      0.00%      2.17% |           0      0.00%      2.17% |          30     65.22%     67.39% |          13     28.26%     95.65% |           2      4.35%    100.00% |           0      0.00%    100.00% |           0      0.00%    100.00% |           0      0.00%    100.00% |           0      0.00%    100.00%
system.ruby.LD.miss_latency_hist::total            46                      
system.ruby.ST.latency_hist::bucket_size          256                      
system.ruby.ST.latency_hist::max_bucket          2559                      
system.ruby.ST.latency_hist::samples              857                      
system.ruby.ST.latency_hist::mean          927.439907                      
system.ruby.ST.latency_hist::gmean         556.916459                      
system.ruby.ST.latency_hist::stdev         312.242258                      
system.ruby.ST.latency_hist              |          80      9.33%      9.33% |           6      0.70%     10.04% |           4      0.47%     10.50% |         412     48.07%     58.58% |         336     39.21%     97.78% |          19      2.22%    100.00% |           0      0.00%    100.00% |           0      0.00%    100.00% |           0      0.00%    100.00% |           0      0.00%    100.00%
system.ruby.ST.latency_hist::total                857                      
system.ruby.ST.hit_latency_hist::bucket_size            1                      
system.ruby.ST.hit_latency_hist::max_bucket            9                      
system.ruby.ST.hit_latency_hist::samples           71                      
system.ruby.ST.hit_latency_hist::mean               1                      
system.ruby.ST.hit_latency_hist::gmean              1                      
system.ruby.ST.hit_latency_hist          |           0      0.00%      0.00% |          71    100.00%    100.00% |           0      0.00%    100.00% |           0      0.00%    100.00% |           0      0.00%    100.00% |           0      0.00%    100.00% |           0      0.00%    100.00% |           0      0.00%    100.00% |           0      0.00%    100.00% |           0      0.00%    100.00%
system.ruby.ST.hit_latency_hist::total             71                      
system.ruby.ST.miss_latency_hist::bucket_size          256                      
system.ruby.ST.miss_latency_hist::max_bucket         2559                      
system.ruby.ST.miss_latency_hist::samples          786                      
system.ruby.ST.miss_latency_hist::mean    1011.125954                      
system.ruby.ST.miss_latency_hist::gmean    985.869507                      
system.ruby.ST.miss_latency_hist::stdev    147.214582                      
system.ruby.ST.miss_latency_hist         |           9      1.15%      1.15% |           6      0.76%      1.91% |           4      0.51%      2.42% |         412     52.42%     54.83% |         336     42.75%     97.58% |          19      2.42%    100.00% |           0      0.00%    100.00% |           0      0.00%    100.00% |           0      0.00%    100.00% |           0      0.00%    100.00%
system.ruby.ST.miss_latency_hist::total           786                      
system.ruby.IFETCH.latency_hist::bucket_size           32                      
system.ruby.IFETCH.latency_hist::max_bucket          319                      
system.ruby.IFETCH.latency_hist::samples           50                      
system.ruby.IFETCH.latency_hist::mean       66.720000                      
system.ruby.IFETCH.latency_hist::gmean      61.968921                      
system.ruby.IFETCH.latency_hist::stdev      27.740812                      
system.ruby.IFETCH.latency_hist          |           1      2.00%      2.00% |          19     38.00%     40.00% |          28     56.00%     96.00% |           0      0.00%     96.00% |           1      2.00%     98.00% |           0      0.00%     98.00% |           1      2.00%    100.00% |           0      0.00%    100.00% |           0      0.00%    100.00% |           0      0.00%    100.00%
system.ruby.IFETCH.latency_hist::total             50                      
system.ruby.IFETCH.miss_latency_hist::bucket_size           32                      
system.ruby.IFETCH.miss_latency_hist::max_bucket          319                      
system.ruby.IFETCH.miss_latency_hist::samples           50                      
system.ruby.IFETCH.miss_latency_hist::mean    66.720000                      
system.ruby.IFETCH.miss_latency_hist::gmean    61.968921                      
system.ruby.IFETCH.miss_latency_hist::stdev    27.740812                      
system.ruby.IFETCH.miss_latency_hist     |           1      2.00%      2.00% |          19     38.00%     40.00% |          28     56.00%     96.00% |           0      0.00%     96.00% |           1      2.00%     98.00% |           0      0.00%     98.00% |           1      2.00%    100.00% |           0      0.00%    100.00% |           0      0.00%    100.00% |           0      0.00%    100.00%
system.ruby.IFETCH.miss_latency_hist::total           50                      
system.ruby.Directory_Controller.GETX             763      0.00%      0.00%
system.ruby.Directory_Controller.GETS              89      0.00%      0.00%
system.ruby.Directory_Controller.PUTX             758      0.00%      0.00%
system.ruby.Directory_Controller.Unblock           84      0.00%      0.00%
system.ruby.Directory_Controller.Last_Unblock            4      0.00%      0.00%
system.ruby.Directory_Controller.Exclusive_Unblock          763      0.00%      0.00%
system.ruby.Directory_Controller.Dirty_Writeback          757      0.00%      0.00%
system.ruby.Directory_Controller.Memory_Data          852      0.00%      0.00%
system.ruby.Directory_Controller.Memory_Ack          757      0.00%      0.00%
system.ruby.Directory_Controller.I.GETX           700      0.00%      0.00%
system.ruby.Directory_Controller.I.GETS            85      0.00%      0.00%
system.ruby.Directory_Controller.I.Memory_Ack          757      0.00%      0.00%
system.ruby.Directory_Controller.S.GETX            63      0.00%      0.00%
system.ruby.Directory_Controller.S.GETS             4      0.00%      0.00%
system.ruby.Directory_Controller.M.PUTX           758      0.00%      0.00%
system.ruby.Directory_Controller.IS.Unblock           84      0.00%      0.00%
system.ruby.Directory_Controller.IS.Memory_Data           85      0.00%      0.00%
system.ruby.Directory_Controller.SS.Last_Unblock            4      0.00%      0.00%
system.ruby.Directory_Controller.SS.Memory_Data            4      0.00%      0.00%
system.ruby.Directory_Controller.MM.Exclusive_Unblock          763      0.00%      0.00%
system.ruby.Directory_Controller.MM.Memory_Data          763      0.00%      0.00%
system.ruby.Directory_Controller.MI.Dirty_Writeback          757      0.00%      0.00%
system.ruby.L1Cache_Controller.Load                52      0.00%      0.00%
system.ruby.L1Cache_Controller.Ifetch              60      0.00%      0.00%
system.ruby.L1Cache_Controller.Store              865      0.00%      0.00%
system.ruby.L1Cache_Controller.L1_Replacement        79286      0.00%      0.00%
system.ruby.L1Cache_Controller.Data                89      0.00%      0.00%
system.ruby.L1Cache_Controller.Exclusive_Data          793      0.00%      0.00%
system.ruby.L1Cache_Controller.Writeback_Ack_Data          877      0.00%      0.00%
system.ruby.L1Cache_Controller.All_acks           786      0.00%      0.00%
system.ruby.L1Cache_Controller.Use_Timeout          792      0.00%      0.00%
system.ruby.L1Cache_Controller.I.Load              46      0.00%      0.00%
system.ruby.L1Cache_Controller.I.Ifetch            50      0.00%      0.00%
system.ruby.L1Cache_Controller.I.Store            786      0.00%      0.00%
system.ruby.L1Cache_Controller.S.L1_Replacement           87      0.00%      0.00%
system.ruby.L1Cache_Controller.M.Store              1      0.00%      0.00%
system.ruby.L1Cache_Controller.M.L1_Replacement            6      0.00%      0.00%
system.ruby.L1Cache_Controller.M_W.L1_Replacement            4      0.00%      0.00%
system.ruby.L1Cache_Controller.M_W.Use_Timeout            7      0.00%      0.00%
system.ruby.L1Cache_Controller.MM.Load              3      0.00%      0.00%
system.ruby.L1Cache_Controller.MM.Store            59      0.00%      0.00%
system.ruby.L1Cache_Controller.MM.L1_Replacement          784      0.00%      0.00%
system.ruby.L1Cache_Controller.MM_W.Load            1      0.00%      0.00%
system.ruby.L1Cache_Controller.MM_W.Store           11      0.00%      0.00%
system.ruby.L1Cache_Controller.MM_W.L1_Replacement        31474      0.00%      0.00%
system.ruby.L1Cache_Controller.MM_W.Use_Timeout          785      0.00%      0.00%
system.ruby.L1Cache_Controller.IM.L1_Replacement        44509      0.00%      0.00%
system.ruby.L1Cache_Controller.IM.Exclusive_Data          786      0.00%      0.00%
system.ruby.L1Cache_Controller.OM.L1_Replacement           57      0.00%      0.00%
system.ruby.L1Cache_Controller.OM.All_acks          786      0.00%      0.00%
system.ruby.L1Cache_Controller.IS.L1_Replacement         2365      0.00%      0.00%
system.ruby.L1Cache_Controller.IS.Data             89      0.00%      0.00%
system.ruby.L1Cache_Controller.IS.Exclusive_Data            7      0.00%      0.00%
system.ruby.L1Cache_Controller.SI.Writeback_Ack_Data           87      0.00%      0.00%
system.ruby.L1Cache_Controller.MI.Load              2      0.00%      0.00%
system.ruby.L1Cache_Controller.MI.Ifetch           10      0.00%      0.00%
system.ruby.L1Cache_Controller.MI.Store             8      0.00%      0.00%
system.ruby.L1Cache_Controller.MI.Writeback_Ack_Data          790      0.00%      0.00%
system.ruby.L2Cache_Controller.L1_GETS             96      0.00%      0.00%
system.ruby.L2Cache_Controller.L1_GETX            786      0.00%      0.00%
system.ruby.L2Cache_Controller.L1_PUTX            790      0.00%      0.00%
system.ruby.L2Cache_Controller.L1_PUTS_only           87      0.00%      0.00%
system.ruby.L2Cache_Controller.All_Acks           763      0.00%      0.00%
system.ruby.L2Cache_Controller.Data               852      0.00%      0.00%
system.ruby.L2Cache_Controller.L1_WBCLEANDATA           87      0.00%      0.00%
system.ruby.L2Cache_Controller.L1_WBDIRTYDATA          790      0.00%      0.00%
system.ruby.L2Cache_Controller.Writeback_Ack          758      0.00%      0.00%
system.ruby.L2Cache_Controller.Unblock             88      0.00%      0.00%
system.ruby.L2Cache_Controller.Exclusive_Unblock          793      0.00%      0.00%
system.ruby.L2Cache_Controller.L2_Replacement          844      0.00%      0.00%
system.ruby.L2Cache_Controller.NP.L1_GETS           89      0.00%      0.00%
system.ruby.L2Cache_Controller.NP.L1_GETX          763      0.00%      0.00%
system.ruby.L2Cache_Controller.ILS.L1_PUTS_only           87      0.00%      0.00%
system.ruby.L2Cache_Controller.ILX.L1_PUTX          790      0.00%      0.00%
system.ruby.L2Cache_Controller.S.L2_Replacement           86      0.00%      0.00%
system.ruby.L2Cache_Controller.M.L1_GETS            7      0.00%      0.00%
system.ruby.L2Cache_Controller.M.L1_GETX           23      0.00%      0.00%
system.ruby.L2Cache_Controller.M.L2_Replacement          758      0.00%      0.00%
system.ruby.L2Cache_Controller.IW.L1_WBCLEANDATA           87      0.00%      0.00%
system.ruby.L2Cache_Controller.ILXW.L1_WBDIRTYDATA          790      0.00%      0.00%
system.ruby.L2Cache_Controller.IGS.Data            89      0.00%      0.00%
system.ruby.L2Cache_Controller.IGS.Unblock           88      0.00%      0.00%
system.ruby.L2Cache_Controller.IGM.Data           763      0.00%      0.00%
system.ruby.L2Cache_Controller.IGMO.All_Acks          763      0.00%      0.00%
system.ruby.L2Cache_Controller.IGMO.Exclusive_Unblock          763      0.00%      0.00%
system.ruby.L2Cache_Controller.MM.Exclusive_Unblock           23      0.00%      0.00%
system.ruby.L2Cache_Controller.OO.Exclusive_Unblock            7      0.00%      0.00%
system.ruby.L2Cache_Controller.MI.Writeback_Ack          758      0.00%      0.00%

---------- End Simulation Statistics   ----------
