Redirecting stdout to build/SPARC/tests/opt/long/se/00.gzip/sparc/linux/o3-timing/simout
Redirecting stderr to build/SPARC/tests/opt/long/se/00.gzip/sparc/linux/o3-timing/simerr
gem5 Simulator System.  http://gem5.org
gem5 is copyrighted software; use the --copyright option for details.

gem5 compiled Mar 26 2013 15:04:14
gem5 started Mar 26 2013 23:39:12
gem5 executing on ribera.cs.wisc.edu
command line: build/SPARC/gem5.opt -d build/SPARC/tests/opt/long/se/00.gzip/sparc/linux/o3-timing -re tests/run.py build/SPARC/tests/opt/long/se/00.gzip/sparc/linux/o3-timing
Global frequency set at 1000000000000 ticks per second
info: Entering event queue @ 0.  Starting simulation...
spec_init
Loading Input Data
Duplicating 262144 bytes
Duplicating 524288 bytes
Input data 1048576 bytes in length
Compressing Input Data, level 1
Compressed data 108074 bytes in length
Uncompressing Data
Uncompressed data 1048576 bytes in length
Uncompressed data compared correctly
Compressing Input Data, level 3
Compressed data 97831 bytes in length
Uncompressing Data
Uncompressed data 1048576 bytes in length
Uncompressed data compared correctly
Compressing Input Data, level 5
Compressed data 83382 bytes in length
Uncompressing Data
Uncompressed data 1048576 bytes in length
Uncompressed data compared correctly
Compressing Input Data, level 7
Compressed data 76606 bytes in length
Uncompressing Data
Uncompressed data 1048576 bytes in length
Uncompressed data compared correctly
Compressing Input Data, level 9
Compressed data 73189 bytes in length
Uncompressing Data
Uncompressed data 1048576 bytes in length
Uncompressed data compared correctly
Tested 1MB buffer: OK!
Exiting @ tick 387290918500 because target called exit()
