gem5 Simulator System.  http://gem5.org
gem5 is copyrighted software; use the --copyright option for details.

gem5 compiled Oct 30 2012 11:20:14
gem5 started Oct 30 2012 21:14:52
gem5 executing on u200540-lin
command line: build/ARM/gem5.opt -d build/ARM/tests/opt/long/fs/10.linux-boot/arm/linux/realview-o3-dual -re tests/run.py build/ARM/tests/opt/long/fs/10.linux-boot/arm/linux/realview-o3-dual
Global frequency set at 1000000000000 ticks per second
info: kernel located at: /projects/pd/randd/dist/binaries/vmlinux.arm.smp.fb.2.6.38.8
info: Using bootloader at address 0x80000000
info: Entering event queue @ 0.  Starting simulation...
Exiting @ tick 2593146078000 because m5_exit instruction encountered
