
---------- Begin Simulation Statistics ----------
sim_seconds                                  1.102958                       # Number of seconds simulated
sim_ticks                                1102958416500                       # Number of ticks simulated
final_tick                               1102958416500                       # Number of ticks from beginning of simulation (restored from checkpoints and never reset)
sim_freq                                 1000000000000                       # Frequency of simulated ticks
host_inst_rate                                  66795                       # Simulator instruction rate (inst/s)
host_op_rate                                    85978                       # Simulator op (including micro ops) rate (op/s)
host_tick_rate                             1196309321                       # Simulator tick rate (ticks/s)
host_mem_usage                                 404244                       # Number of bytes of host memory used
host_seconds                                   921.97                       # Real time elapsed on the host
sim_insts                                    61582525                       # Number of instructions simulated
sim_ops                                      79269125                       # Number of ops (including micro ops) simulated
system.physmem.bytes_read::realview.clcd     48758784                       # Number of bytes read from this memory
system.physmem.bytes_read::cpu0.dtb.walker          832                       # Number of bytes read from this memory
system.physmem.bytes_read::cpu0.itb.walker          192                       # Number of bytes read from this memory
system.physmem.bytes_read::cpu0.inst           410752                       # Number of bytes read from this memory
system.physmem.bytes_read::cpu0.data          4380596                       # Number of bytes read from this memory
system.physmem.bytes_read::cpu1.dtb.walker         1088                       # Number of bytes read from this memory
system.physmem.bytes_read::cpu1.inst           405056                       # Number of bytes read from this memory
system.physmem.bytes_read::cpu1.data          5224880                       # Number of bytes read from this memory
system.physmem.bytes_read::total             59182180                       # Number of bytes read from this memory
system.physmem.bytes_inst_read::cpu0.inst       410752                       # Number of instructions bytes read from this memory
system.physmem.bytes_inst_read::cpu1.inst       405056                       # Number of instructions bytes read from this memory
system.physmem.bytes_inst_read::total          815808                       # Number of instructions bytes read from this memory
system.physmem.bytes_written::writebacks      4259968                       # Number of bytes written to this memory
system.physmem.bytes_written::cpu0.data         17000                       # Number of bytes written to this memory
system.physmem.bytes_written::cpu1.data       3010344                       # Number of bytes written to this memory
system.physmem.bytes_written::total           7287312                       # Number of bytes written to this memory
system.physmem.num_reads::realview.clcd       6094848                       # Number of read requests responded to by this memory
system.physmem.num_reads::cpu0.dtb.walker           13                       # Number of read requests responded to by this memory
system.physmem.num_reads::cpu0.itb.walker            3                       # Number of read requests responded to by this memory
system.physmem.num_reads::cpu0.inst              6418                       # Number of read requests responded to by this memory
system.physmem.num_reads::cpu0.data             68519                       # Number of read requests responded to by this memory
system.physmem.num_reads::cpu1.dtb.walker           17                       # Number of read requests responded to by this memory
system.physmem.num_reads::cpu1.inst              6329                       # Number of read requests responded to by this memory
system.physmem.num_reads::cpu1.data             81665                       # Number of read requests responded to by this memory
system.physmem.num_reads::total               6257812                       # Number of read requests responded to by this memory
system.physmem.num_writes::writebacks           66562                       # Number of write requests responded to by this memory
system.physmem.num_writes::cpu0.data             4250                       # Number of write requests responded to by this memory
system.physmem.num_writes::cpu1.data           752586                       # Number of write requests responded to by this memory
system.physmem.num_writes::total               823398                       # Number of write requests responded to by this memory
system.physmem.bw_read::realview.clcd        44207273                       # Total read bandwidth from this memory (bytes/s)
system.physmem.bw_read::cpu0.dtb.walker           754                       # Total read bandwidth from this memory (bytes/s)
system.physmem.bw_read::cpu0.itb.walker           174                       # Total read bandwidth from this memory (bytes/s)
system.physmem.bw_read::cpu0.inst              372409                       # Total read bandwidth from this memory (bytes/s)
system.physmem.bw_read::cpu0.data             3971678                       # Total read bandwidth from this memory (bytes/s)
system.physmem.bw_read::cpu1.dtb.walker           986                       # Total read bandwidth from this memory (bytes/s)
system.physmem.bw_read::cpu1.inst              367245                       # Total read bandwidth from this memory (bytes/s)
system.physmem.bw_read::cpu1.data             4737150                       # Total read bandwidth from this memory (bytes/s)
system.physmem.bw_read::total                53657671                       # Total read bandwidth from this memory (bytes/s)
system.physmem.bw_inst_read::cpu0.inst         372409                       # Instruction read bandwidth from this memory (bytes/s)
system.physmem.bw_inst_read::cpu1.inst         367245                       # Instruction read bandwidth from this memory (bytes/s)
system.physmem.bw_inst_read::total             739654                       # Instruction read bandwidth from this memory (bytes/s)
system.physmem.bw_write::writebacks           3862311                       # Write bandwidth from this memory (bytes/s)
system.physmem.bw_write::cpu0.data              15413                       # Write bandwidth from this memory (bytes/s)
system.physmem.bw_write::cpu1.data            2729336                       # Write bandwidth from this memory (bytes/s)
system.physmem.bw_write::total                6607060                       # Write bandwidth from this memory (bytes/s)
system.physmem.bw_total::writebacks           3862311                       # Total bandwidth to/from this memory (bytes/s)
system.physmem.bw_total::realview.clcd       44207273                       # Total bandwidth to/from this memory (bytes/s)
system.physmem.bw_total::cpu0.dtb.walker          754                       # Total bandwidth to/from this memory (bytes/s)
system.physmem.bw_total::cpu0.itb.walker          174                       # Total bandwidth to/from this memory (bytes/s)
system.physmem.bw_total::cpu0.inst             372409                       # Total bandwidth to/from this memory (bytes/s)
system.physmem.bw_total::cpu0.data            3987091                       # Total bandwidth to/from this memory (bytes/s)
system.physmem.bw_total::cpu1.dtb.walker          986                       # Total bandwidth to/from this memory (bytes/s)
system.physmem.bw_total::cpu1.inst             367245                       # Total bandwidth to/from this memory (bytes/s)
system.physmem.bw_total::cpu1.data            7466486                       # Total bandwidth to/from this memory (bytes/s)
system.physmem.bw_total::total               60264731                       # Total bandwidth to/from this memory (bytes/s)
system.physmem.readReqs                       6257812                       # Total number of read requests seen
system.physmem.writeReqs                       823398                       # Total number of write requests seen
system.physmem.cpureqs                         242000                       # Reqs generatd by CPU via cache - shady
system.physmem.bytesRead                    400499968                       # Total number of bytes read from memory
system.physmem.bytesWritten                  52697472                       # Total number of bytes written to memory
system.physmem.bytesConsumedRd               59182180                       # bytesRead derated as per pkt->getSize()
system.physmem.bytesConsumedWr                7287312                       # bytesWritten derated as per pkt->getSize()
system.physmem.servicedByWrQ                       78                       # Number of read reqs serviced by write Q
system.physmem.neitherReadNorWrite              12579                       # Reqs where no action is needed
system.physmem.perBankRdReqs::0                391407                       # Track reads on a per bank basis
system.physmem.perBankRdReqs::1                391213                       # Track reads on a per bank basis
system.physmem.perBankRdReqs::2                390854                       # Track reads on a per bank basis
system.physmem.perBankRdReqs::3                391610                       # Track reads on a per bank basis
system.physmem.perBankRdReqs::4                391518                       # Track reads on a per bank basis
system.physmem.perBankRdReqs::5                390872                       # Track reads on a per bank basis
system.physmem.perBankRdReqs::6                390926                       # Track reads on a per bank basis
system.physmem.perBankRdReqs::7                391637                       # Track reads on a per bank basis
system.physmem.perBankRdReqs::8                391404                       # Track reads on a per bank basis
system.physmem.perBankRdReqs::9                390705                       # Track reads on a per bank basis
system.physmem.perBankRdReqs::10               390857                       # Track reads on a per bank basis
system.physmem.perBankRdReqs::11               391237                       # Track reads on a per bank basis
system.physmem.perBankRdReqs::12               391233                       # Track reads on a per bank basis
system.physmem.perBankRdReqs::13               390526                       # Track reads on a per bank basis
system.physmem.perBankRdReqs::14               390472                       # Track reads on a per bank basis
system.physmem.perBankRdReqs::15               391263                       # Track reads on a per bank basis
system.physmem.perBankWrReqs::0                 51413                       # Track writes on a per bank basis
system.physmem.perBankWrReqs::1                 51231                       # Track writes on a per bank basis
system.physmem.perBankWrReqs::2                 51006                       # Track writes on a per bank basis
system.physmem.perBankWrReqs::3                 51680                       # Track writes on a per bank basis
system.physmem.perBankWrReqs::4                 51540                       # Track writes on a per bank basis
system.physmem.perBankWrReqs::5                 50963                       # Track writes on a per bank basis
system.physmem.perBankWrReqs::6                 50973                       # Track writes on a per bank basis
system.physmem.perBankWrReqs::7                 51665                       # Track writes on a per bank basis
system.physmem.perBankWrReqs::8                 52039                       # Track writes on a per bank basis
system.physmem.perBankWrReqs::9                 51352                       # Track writes on a per bank basis
system.physmem.perBankWrReqs::10                51495                       # Track writes on a per bank basis
system.physmem.perBankWrReqs::11                51885                       # Track writes on a per bank basis
system.physmem.perBankWrReqs::12                51842                       # Track writes on a per bank basis
system.physmem.perBankWrReqs::13                51248                       # Track writes on a per bank basis
system.physmem.perBankWrReqs::14                51173                       # Track writes on a per bank basis
system.physmem.perBankWrReqs::15                51893                       # Track writes on a per bank basis
system.physmem.numRdRetry                           0                       # Number of times rd buffer was full causing retry
system.physmem.numWrRetry                       32627                       # Number of times wr buffer was full causing retry
system.physmem.totGap                    1102957282500                       # Total gap between requests
system.physmem.readPktSize::0                       0                       # Categorize read packet sizes
system.physmem.readPktSize::1                       0                       # Categorize read packet sizes
system.physmem.readPktSize::2                     105                       # Categorize read packet sizes
system.physmem.readPktSize::3                 6094848                       # Categorize read packet sizes
system.physmem.readPktSize::4                       0                       # Categorize read packet sizes
system.physmem.readPktSize::5                       0                       # Categorize read packet sizes
system.physmem.readPktSize::6                  162859                       # Categorize read packet sizes
system.physmem.writePktSize::0                      0                       # Categorize write packet sizes
system.physmem.writePktSize::1                      0                       # Categorize write packet sizes
system.physmem.writePktSize::2                 756836                       # Categorize write packet sizes
system.physmem.writePktSize::3                      0                       # Categorize write packet sizes
system.physmem.writePktSize::4                      0                       # Categorize write packet sizes
system.physmem.writePktSize::5                      0                       # Categorize write packet sizes
system.physmem.writePktSize::6                  66562                       # Categorize write packet sizes
system.physmem.rdQLenPdf::0                    493912                       # What read queue length does an incoming req see
system.physmem.rdQLenPdf::1                    430569                       # What read queue length does an incoming req see
system.physmem.rdQLenPdf::2                    391898                       # What read queue length does an incoming req see
system.physmem.rdQLenPdf::3                   1441588                       # What read queue length does an incoming req see
system.physmem.rdQLenPdf::4                   1085856                       # What read queue length does an incoming req see
system.physmem.rdQLenPdf::5                   1098172                       # What read queue length does an incoming req see
system.physmem.rdQLenPdf::6                   1064332                       # What read queue length does an incoming req see
system.physmem.rdQLenPdf::7                     26910                       # What read queue length does an incoming req see
system.physmem.rdQLenPdf::8                     24845                       # What read queue length does an incoming req see
system.physmem.rdQLenPdf::9                     44429                       # What read queue length does an incoming req see
system.physmem.rdQLenPdf::10                    63782                       # What read queue length does an incoming req see
system.physmem.rdQLenPdf::11                    44273                       # What read queue length does an incoming req see
system.physmem.rdQLenPdf::12                    12054                       # What read queue length does an incoming req see
system.physmem.rdQLenPdf::13                    11817                       # What read queue length does an incoming req see
system.physmem.rdQLenPdf::14                    15280                       # What read queue length does an incoming req see
system.physmem.rdQLenPdf::15                     7853                       # What read queue length does an incoming req see
system.physmem.rdQLenPdf::16                      145                       # What read queue length does an incoming req see
system.physmem.rdQLenPdf::17                       15                       # What read queue length does an incoming req see
system.physmem.rdQLenPdf::18                        3                       # What read queue length does an incoming req see
system.physmem.rdQLenPdf::19                        1                       # What read queue length does an incoming req see
system.physmem.rdQLenPdf::20                        0                       # What read queue length does an incoming req see
system.physmem.rdQLenPdf::21                        0                       # What read queue length does an incoming req see
system.physmem.rdQLenPdf::22                        0                       # What read queue length does an incoming req see
system.physmem.rdQLenPdf::23                        0                       # What read queue length does an incoming req see
system.physmem.rdQLenPdf::24                        0                       # What read queue length does an incoming req see
system.physmem.rdQLenPdf::25                        0                       # What read queue length does an incoming req see
system.physmem.rdQLenPdf::26                        0                       # What read queue length does an incoming req see
system.physmem.rdQLenPdf::27                        0                       # What read queue length does an incoming req see
system.physmem.rdQLenPdf::28                        0                       # What read queue length does an incoming req see
system.physmem.rdQLenPdf::29                        0                       # What read queue length does an incoming req see
system.physmem.rdQLenPdf::30                        0                       # What read queue length does an incoming req see
system.physmem.rdQLenPdf::31                        0                       # What read queue length does an incoming req see
system.physmem.wrQLenPdf::0                      2898                       # What write queue length does an incoming req see
system.physmem.wrQLenPdf::1                      2954                       # What write queue length does an incoming req see
system.physmem.wrQLenPdf::2                      3002                       # What write queue length does an incoming req see
system.physmem.wrQLenPdf::3                      3044                       # What write queue length does an incoming req see
system.physmem.wrQLenPdf::4                      3065                       # What write queue length does an incoming req see
system.physmem.wrQLenPdf::5                      3087                       # What write queue length does an incoming req see
system.physmem.wrQLenPdf::6                      3115                       # What write queue length does an incoming req see
system.physmem.wrQLenPdf::7                      3136                       # What write queue length does an incoming req see
system.physmem.wrQLenPdf::8                      3157                       # What write queue length does an incoming req see
system.physmem.wrQLenPdf::9                     35800                       # What write queue length does an incoming req see
system.physmem.wrQLenPdf::10                    35800                       # What write queue length does an incoming req see
system.physmem.wrQLenPdf::11                    35800                       # What write queue length does an incoming req see
system.physmem.wrQLenPdf::12                    35800                       # What write queue length does an incoming req see
system.physmem.wrQLenPdf::13                    35800                       # What write queue length does an incoming req see
system.physmem.wrQLenPdf::14                    35800                       # What write queue length does an incoming req see
system.physmem.wrQLenPdf::15                    35800                       # What write queue length does an incoming req see
system.physmem.wrQLenPdf::16                    35800                       # What write queue length does an incoming req see
system.physmem.wrQLenPdf::17                    35800                       # What write queue length does an incoming req see
system.physmem.wrQLenPdf::18                    35800                       # What write queue length does an incoming req see
system.physmem.wrQLenPdf::19                    35800                       # What write queue length does an incoming req see
system.physmem.wrQLenPdf::20                    35800                       # What write queue length does an incoming req see
system.physmem.wrQLenPdf::21                    35799                       # What write queue length does an incoming req see
system.physmem.wrQLenPdf::22                    35799                       # What write queue length does an incoming req see
system.physmem.wrQLenPdf::23                    32902                       # What write queue length does an incoming req see
system.physmem.wrQLenPdf::24                    32846                       # What write queue length does an incoming req see
system.physmem.wrQLenPdf::25                    32798                       # What write queue length does an incoming req see
system.physmem.wrQLenPdf::26                    32756                       # What write queue length does an incoming req see
system.physmem.wrQLenPdf::27                    32735                       # What write queue length does an incoming req see
system.physmem.wrQLenPdf::28                    32713                       # What write queue length does an incoming req see
system.physmem.wrQLenPdf::29                    32685                       # What write queue length does an incoming req see
system.physmem.wrQLenPdf::30                    32664                       # What write queue length does an incoming req see
system.physmem.wrQLenPdf::31                    32643                       # What write queue length does an incoming req see
system.physmem.totQLat                   199244474250                       # Total cycles spent in queuing delays
system.physmem.totMemAccLat              239068869250                       # Sum of mem lat for all requests
system.physmem.totBusLat                  31288670000                       # Total cycles spent in databus access
system.physmem.totBankLat                  8535725000                       # Total cycles spent in bank access
system.physmem.avgQLat                       31839.72                       # Average queueing delay per request
system.physmem.avgBankLat                     1364.03                       # Average bank access latency per request
system.physmem.avgBusLat                      5000.00                       # Average bus latency per request
system.physmem.avgMemAccLat                  38203.74                       # Average memory access latency
system.physmem.avgRdBW                         363.11                       # Average achieved read bandwidth in MB/s
system.physmem.avgWrBW                          47.78                       # Average achieved write bandwidth in MB/s
system.physmem.avgConsumedRdBW                  53.66                       # Average consumed read bandwidth in MB/s
system.physmem.avgConsumedWrBW                   6.61                       # Average consumed write bandwidth in MB/s
system.physmem.peakBW                        12800.00                       # Theoretical peak bandwidth in MB/s
system.physmem.busUtil                           3.21                       # Data bus utilization in percentage
system.physmem.avgRdQLen                         0.22                       # Average read queue length over time
system.physmem.avgWrQLen                        10.41                       # Average write queue length over time
system.physmem.readRowHits                    6213843                       # Number of row buffer hits during reads
system.physmem.writeRowHits                    799878                       # Number of row buffer hits during writes
system.physmem.readRowHitRate                   99.30                       # Row buffer hit rate for reads
system.physmem.writeRowHitRate                  97.14                       # Row buffer hit rate for writes
system.physmem.avgGap                       155758.31                       # Average gap between requests
system.realview.nvmem.bytes_read::cpu0.inst           64                       # Number of bytes read from this memory
system.realview.nvmem.bytes_read::cpu1.inst          384                       # Number of bytes read from this memory
system.realview.nvmem.bytes_read::total           448                       # Number of bytes read from this memory
system.realview.nvmem.bytes_inst_read::cpu0.inst           64                       # Number of instructions bytes read from this memory
system.realview.nvmem.bytes_inst_read::cpu1.inst          384                       # Number of instructions bytes read from this memory
system.realview.nvmem.bytes_inst_read::total          448                       # Number of instructions bytes read from this memory
system.realview.nvmem.num_reads::cpu0.inst            1                       # Number of read requests responded to by this memory
system.realview.nvmem.num_reads::cpu1.inst            6                       # Number of read requests responded to by this memory
system.realview.nvmem.num_reads::total              7                       # Number of read requests responded to by this memory
system.realview.nvmem.bw_read::cpu0.inst           58                       # Total read bandwidth from this memory (bytes/s)
system.realview.nvmem.bw_read::cpu1.inst          348                       # Total read bandwidth from this memory (bytes/s)
system.realview.nvmem.bw_read::total              406                       # Total read bandwidth from this memory (bytes/s)
system.realview.nvmem.bw_inst_read::cpu0.inst           58                       # Instruction read bandwidth from this memory (bytes/s)
system.realview.nvmem.bw_inst_read::cpu1.inst          348                       # Instruction read bandwidth from this memory (bytes/s)
system.realview.nvmem.bw_inst_read::total          406                       # Instruction read bandwidth from this memory (bytes/s)
system.realview.nvmem.bw_total::cpu0.inst           58                       # Total bandwidth to/from this memory (bytes/s)
system.realview.nvmem.bw_total::cpu1.inst          348                       # Total bandwidth to/from this memory (bytes/s)
system.realview.nvmem.bw_total::total             406                       # Total bandwidth to/from this memory (bytes/s)
system.l2c.replacements                         72564                       # number of replacements
system.l2c.tagsinuse                     53751.759262                       # Cycle average of tags in use
system.l2c.total_refs                         1839556                       # Total number of references to valid blocks.
system.l2c.sampled_refs                        137761                       # Sample count of references to valid blocks.
system.l2c.avg_refs                         13.353242                       # Average number of references to valid blocks.
system.l2c.warmup_cycle                             0                       # Cycle when the warmup percentage was hit.
system.l2c.occ_blocks::writebacks        39378.859227                       # Average occupied blocks per requestor
system.l2c.occ_blocks::cpu0.dtb.walker       4.194190                       # Average occupied blocks per requestor
system.l2c.occ_blocks::cpu0.itb.walker       0.010198                       # Average occupied blocks per requestor
system.l2c.occ_blocks::cpu0.inst          4015.520084                       # Average occupied blocks per requestor
system.l2c.occ_blocks::cpu0.data          2826.859367                       # Average occupied blocks per requestor
system.l2c.occ_blocks::cpu1.dtb.walker      10.896267                       # Average occupied blocks per requestor
system.l2c.occ_blocks::cpu1.inst          3720.882915                       # Average occupied blocks per requestor
system.l2c.occ_blocks::cpu1.data          3794.537014                       # Average occupied blocks per requestor
system.l2c.occ_percent::writebacks           0.600874                       # Average percentage of cache occupancy
system.l2c.occ_percent::cpu0.dtb.walker      0.000064                       # Average percentage of cache occupancy
system.l2c.occ_percent::cpu0.itb.walker      0.000000                       # Average percentage of cache occupancy
system.l2c.occ_percent::cpu0.inst            0.061272                       # Average percentage of cache occupancy
system.l2c.occ_percent::cpu0.data            0.043134                       # Average percentage of cache occupancy
system.l2c.occ_percent::cpu1.dtb.walker      0.000166                       # Average percentage of cache occupancy
system.l2c.occ_percent::cpu1.inst            0.056776                       # Average percentage of cache occupancy
system.l2c.occ_percent::cpu1.data            0.057900                       # Average percentage of cache occupancy
system.l2c.occ_percent::total                0.820187                       # Average percentage of cache occupancy
system.l2c.ReadReq_hits::cpu0.dtb.walker        21638                       # number of ReadReq hits
system.l2c.ReadReq_hits::cpu0.itb.walker         4069                       # number of ReadReq hits
system.l2c.ReadReq_hits::cpu0.inst             385706                       # number of ReadReq hits
system.l2c.ReadReq_hits::cpu0.data             166655                       # number of ReadReq hits
system.l2c.ReadReq_hits::cpu1.dtb.walker        30870                       # number of ReadReq hits
system.l2c.ReadReq_hits::cpu1.itb.walker         5056                       # number of ReadReq hits
system.l2c.ReadReq_hits::cpu1.inst             589485                       # number of ReadReq hits
system.l2c.ReadReq_hits::cpu1.data             198042                       # number of ReadReq hits
system.l2c.ReadReq_hits::total                1401521                       # number of ReadReq hits
system.l2c.Writeback_hits::writebacks          580941                       # number of Writeback hits
system.l2c.Writeback_hits::total               580941                       # number of Writeback hits
system.l2c.UpgradeReq_hits::cpu0.data            1130                       # number of UpgradeReq hits
system.l2c.UpgradeReq_hits::cpu1.data             742                       # number of UpgradeReq hits
system.l2c.UpgradeReq_hits::total                1872                       # number of UpgradeReq hits
system.l2c.SCUpgradeReq_hits::cpu0.data           193                       # number of SCUpgradeReq hits
system.l2c.SCUpgradeReq_hits::cpu1.data           147                       # number of SCUpgradeReq hits
system.l2c.SCUpgradeReq_hits::total               340                       # number of SCUpgradeReq hits
system.l2c.ReadExReq_hits::cpu0.data            48042                       # number of ReadExReq hits
system.l2c.ReadExReq_hits::cpu1.data            58929                       # number of ReadExReq hits
system.l2c.ReadExReq_hits::total               106971                       # number of ReadExReq hits
system.l2c.demand_hits::cpu0.dtb.walker         21638                       # number of demand (read+write) hits
system.l2c.demand_hits::cpu0.itb.walker          4069                       # number of demand (read+write) hits
system.l2c.demand_hits::cpu0.inst              385706                       # number of demand (read+write) hits
system.l2c.demand_hits::cpu0.data              214697                       # number of demand (read+write) hits
system.l2c.demand_hits::cpu1.dtb.walker         30870                       # number of demand (read+write) hits
system.l2c.demand_hits::cpu1.itb.walker          5056                       # number of demand (read+write) hits
system.l2c.demand_hits::cpu1.inst              589485                       # number of demand (read+write) hits
system.l2c.demand_hits::cpu1.data              256971                       # number of demand (read+write) hits
system.l2c.demand_hits::total                 1508492                       # number of demand (read+write) hits
system.l2c.overall_hits::cpu0.dtb.walker        21638                       # number of overall hits
system.l2c.overall_hits::cpu0.itb.walker         4069                       # number of overall hits
system.l2c.overall_hits::cpu0.inst             385706                       # number of overall hits
system.l2c.overall_hits::cpu0.data             214697                       # number of overall hits
system.l2c.overall_hits::cpu1.dtb.walker        30870                       # number of overall hits
system.l2c.overall_hits::cpu1.itb.walker         5056                       # number of overall hits
system.l2c.overall_hits::cpu1.inst             589485                       # number of overall hits
system.l2c.overall_hits::cpu1.data             256971                       # number of overall hits
system.l2c.overall_hits::total                1508492                       # number of overall hits
system.l2c.ReadReq_misses::cpu0.dtb.walker           13                       # number of ReadReq misses
system.l2c.ReadReq_misses::cpu0.itb.walker            3                       # number of ReadReq misses
system.l2c.ReadReq_misses::cpu0.inst             6298                       # number of ReadReq misses
system.l2c.ReadReq_misses::cpu0.data             6402                       # number of ReadReq misses
system.l2c.ReadReq_misses::cpu1.dtb.walker           17                       # number of ReadReq misses
system.l2c.ReadReq_misses::cpu1.inst             6294                       # number of ReadReq misses
system.l2c.ReadReq_misses::cpu1.data             6282                       # number of ReadReq misses
system.l2c.ReadReq_misses::total                25309                       # number of ReadReq misses
system.l2c.UpgradeReq_misses::cpu0.data          5141                       # number of UpgradeReq misses
system.l2c.UpgradeReq_misses::cpu1.data          3789                       # number of UpgradeReq misses
system.l2c.UpgradeReq_misses::total              8930                       # number of UpgradeReq misses
system.l2c.SCUpgradeReq_misses::cpu0.data          641                       # number of SCUpgradeReq misses
system.l2c.SCUpgradeReq_misses::cpu1.data          416                       # number of SCUpgradeReq misses
system.l2c.SCUpgradeReq_misses::total            1057                       # number of SCUpgradeReq misses
system.l2c.ReadExReq_misses::cpu0.data          63471                       # number of ReadExReq misses
system.l2c.ReadExReq_misses::cpu1.data          76579                       # number of ReadExReq misses
system.l2c.ReadExReq_misses::total             140050                       # number of ReadExReq misses
system.l2c.demand_misses::cpu0.dtb.walker           13                       # number of demand (read+write) misses
system.l2c.demand_misses::cpu0.itb.walker            3                       # number of demand (read+write) misses
system.l2c.demand_misses::cpu0.inst              6298                       # number of demand (read+write) misses
system.l2c.demand_misses::cpu0.data             69873                       # number of demand (read+write) misses
system.l2c.demand_misses::cpu1.dtb.walker           17                       # number of demand (read+write) misses
system.l2c.demand_misses::cpu1.inst              6294                       # number of demand (read+write) misses
system.l2c.demand_misses::cpu1.data             82861                       # number of demand (read+write) misses
system.l2c.demand_misses::total                165359                       # number of demand (read+write) misses
system.l2c.overall_misses::cpu0.dtb.walker           13                       # number of overall misses
system.l2c.overall_misses::cpu0.itb.walker            3                       # number of overall misses
system.l2c.overall_misses::cpu0.inst             6298                       # number of overall misses
system.l2c.overall_misses::cpu0.data            69873                       # number of overall misses
system.l2c.overall_misses::cpu1.dtb.walker           17                       # number of overall misses
system.l2c.overall_misses::cpu1.inst             6294                       # number of overall misses
system.l2c.overall_misses::cpu1.data            82861                       # number of overall misses
system.l2c.overall_misses::total               165359                       # number of overall misses
system.l2c.ReadReq_miss_latency::cpu0.dtb.walker       867000                       # number of ReadReq miss cycles
system.l2c.ReadReq_miss_latency::cpu0.itb.walker       187000                       # number of ReadReq miss cycles
system.l2c.ReadReq_miss_latency::cpu0.inst    349540500                       # number of ReadReq miss cycles
system.l2c.ReadReq_miss_latency::cpu0.data    369073494                       # number of ReadReq miss cycles
system.l2c.ReadReq_miss_latency::cpu1.dtb.walker      1249500                       # number of ReadReq miss cycles
system.l2c.ReadReq_miss_latency::cpu1.inst    380545500                       # number of ReadReq miss cycles
system.l2c.ReadReq_miss_latency::cpu1.data    397720997                       # number of ReadReq miss cycles
system.l2c.ReadReq_miss_latency::total     1499183991                       # number of ReadReq miss cycles
system.l2c.UpgradeReq_miss_latency::cpu0.data      8713990                       # number of UpgradeReq miss cycles
system.l2c.UpgradeReq_miss_latency::cpu1.data     11767499                       # number of UpgradeReq miss cycles
system.l2c.UpgradeReq_miss_latency::total     20481489                       # number of UpgradeReq miss cycles
system.l2c.SCUpgradeReq_miss_latency::cpu0.data       612500                       # number of SCUpgradeReq miss cycles
system.l2c.SCUpgradeReq_miss_latency::cpu1.data      2911000                       # number of SCUpgradeReq miss cycles
system.l2c.SCUpgradeReq_miss_latency::total      3523500                       # number of SCUpgradeReq miss cycles
system.l2c.ReadExReq_miss_latency::cpu0.data   3164041493                       # number of ReadExReq miss cycles
system.l2c.ReadExReq_miss_latency::cpu1.data   4107833997                       # number of ReadExReq miss cycles
system.l2c.ReadExReq_miss_latency::total   7271875490                       # number of ReadExReq miss cycles
system.l2c.demand_miss_latency::cpu0.dtb.walker       867000                       # number of demand (read+write) miss cycles
system.l2c.demand_miss_latency::cpu0.itb.walker       187000                       # number of demand (read+write) miss cycles
system.l2c.demand_miss_latency::cpu0.inst    349540500                       # number of demand (read+write) miss cycles
system.l2c.demand_miss_latency::cpu0.data   3533114987                       # number of demand (read+write) miss cycles
system.l2c.demand_miss_latency::cpu1.dtb.walker      1249500                       # number of demand (read+write) miss cycles
system.l2c.demand_miss_latency::cpu1.inst    380545500                       # number of demand (read+write) miss cycles
system.l2c.demand_miss_latency::cpu1.data   4505554994                       # number of demand (read+write) miss cycles
system.l2c.demand_miss_latency::total      8771059481                       # number of demand (read+write) miss cycles
system.l2c.overall_miss_latency::cpu0.dtb.walker       867000                       # number of overall miss cycles
system.l2c.overall_miss_latency::cpu0.itb.walker       187000                       # number of overall miss cycles
system.l2c.overall_miss_latency::cpu0.inst    349540500                       # number of overall miss cycles
system.l2c.overall_miss_latency::cpu0.data   3533114987                       # number of overall miss cycles
system.l2c.overall_miss_latency::cpu1.dtb.walker      1249500                       # number of overall miss cycles
system.l2c.overall_miss_latency::cpu1.inst    380545500                       # number of overall miss cycles
system.l2c.overall_miss_latency::cpu1.data   4505554994                       # number of overall miss cycles
system.l2c.overall_miss_latency::total     8771059481                       # number of overall miss cycles
system.l2c.ReadReq_accesses::cpu0.dtb.walker        21651                       # number of ReadReq accesses(hits+misses)
system.l2c.ReadReq_accesses::cpu0.itb.walker         4072                       # number of ReadReq accesses(hits+misses)
system.l2c.ReadReq_accesses::cpu0.inst         392004                       # number of ReadReq accesses(hits+misses)
system.l2c.ReadReq_accesses::cpu0.data         173057                       # number of ReadReq accesses(hits+misses)
system.l2c.ReadReq_accesses::cpu1.dtb.walker        30887                       # number of ReadReq accesses(hits+misses)
system.l2c.ReadReq_accesses::cpu1.itb.walker         5056                       # number of ReadReq accesses(hits+misses)
system.l2c.ReadReq_accesses::cpu1.inst         595779                       # number of ReadReq accesses(hits+misses)
system.l2c.ReadReq_accesses::cpu1.data         204324                       # number of ReadReq accesses(hits+misses)
system.l2c.ReadReq_accesses::total            1426830                       # number of ReadReq accesses(hits+misses)
system.l2c.Writeback_accesses::writebacks       580941                       # number of Writeback accesses(hits+misses)
system.l2c.Writeback_accesses::total           580941                       # number of Writeback accesses(hits+misses)
system.l2c.UpgradeReq_accesses::cpu0.data         6271                       # number of UpgradeReq accesses(hits+misses)
system.l2c.UpgradeReq_accesses::cpu1.data         4531                       # number of UpgradeReq accesses(hits+misses)
system.l2c.UpgradeReq_accesses::total           10802                       # number of UpgradeReq accesses(hits+misses)
system.l2c.SCUpgradeReq_accesses::cpu0.data          834                       # number of SCUpgradeReq accesses(hits+misses)
system.l2c.SCUpgradeReq_accesses::cpu1.data          563                       # number of SCUpgradeReq accesses(hits+misses)
system.l2c.SCUpgradeReq_accesses::total          1397                       # number of SCUpgradeReq accesses(hits+misses)
system.l2c.ReadExReq_accesses::cpu0.data       111513                       # number of ReadExReq accesses(hits+misses)
system.l2c.ReadExReq_accesses::cpu1.data       135508                       # number of ReadExReq accesses(hits+misses)
system.l2c.ReadExReq_accesses::total           247021                       # number of ReadExReq accesses(hits+misses)
system.l2c.demand_accesses::cpu0.dtb.walker        21651                       # number of demand (read+write) accesses
system.l2c.demand_accesses::cpu0.itb.walker         4072                       # number of demand (read+write) accesses
system.l2c.demand_accesses::cpu0.inst          392004                       # number of demand (read+write) accesses
system.l2c.demand_accesses::cpu0.data          284570                       # number of demand (read+write) accesses
system.l2c.demand_accesses::cpu1.dtb.walker        30887                       # number of demand (read+write) accesses
system.l2c.demand_accesses::cpu1.itb.walker         5056                       # number of demand (read+write) accesses
system.l2c.demand_accesses::cpu1.inst          595779                       # number of demand (read+write) accesses
system.l2c.demand_accesses::cpu1.data          339832                       # number of demand (read+write) accesses
system.l2c.demand_accesses::total             1673851                       # number of demand (read+write) accesses
system.l2c.overall_accesses::cpu0.dtb.walker        21651                       # number of overall (read+write) accesses
system.l2c.overall_accesses::cpu0.itb.walker         4072                       # number of overall (read+write) accesses
system.l2c.overall_accesses::cpu0.inst         392004                       # number of overall (read+write) accesses
system.l2c.overall_accesses::cpu0.data         284570                       # number of overall (read+write) accesses
system.l2c.overall_accesses::cpu1.dtb.walker        30887                       # number of overall (read+write) accesses
system.l2c.overall_accesses::cpu1.itb.walker         5056                       # number of overall (read+write) accesses
system.l2c.overall_accesses::cpu1.inst         595779                       # number of overall (read+write) accesses
system.l2c.overall_accesses::cpu1.data         339832                       # number of overall (read+write) accesses
system.l2c.overall_accesses::total            1673851                       # number of overall (read+write) accesses
system.l2c.ReadReq_miss_rate::cpu0.dtb.walker     0.000600                       # miss rate for ReadReq accesses
system.l2c.ReadReq_miss_rate::cpu0.itb.walker     0.000737                       # miss rate for ReadReq accesses
system.l2c.ReadReq_miss_rate::cpu0.inst      0.016066                       # miss rate for ReadReq accesses
system.l2c.ReadReq_miss_rate::cpu0.data      0.036994                       # miss rate for ReadReq accesses
system.l2c.ReadReq_miss_rate::cpu1.dtb.walker     0.000550                       # miss rate for ReadReq accesses
system.l2c.ReadReq_miss_rate::cpu1.inst      0.010564                       # miss rate for ReadReq accesses
system.l2c.ReadReq_miss_rate::cpu1.data      0.030745                       # miss rate for ReadReq accesses
system.l2c.ReadReq_miss_rate::total          0.017738                       # miss rate for ReadReq accesses
system.l2c.UpgradeReq_miss_rate::cpu0.data     0.819805                       # miss rate for UpgradeReq accesses
system.l2c.UpgradeReq_miss_rate::cpu1.data     0.836239                       # miss rate for UpgradeReq accesses
system.l2c.UpgradeReq_miss_rate::total       0.826699                       # miss rate for UpgradeReq accesses
system.l2c.SCUpgradeReq_miss_rate::cpu0.data     0.768585                       # miss rate for SCUpgradeReq accesses
system.l2c.SCUpgradeReq_miss_rate::cpu1.data     0.738899                       # miss rate for SCUpgradeReq accesses
system.l2c.SCUpgradeReq_miss_rate::total     0.756621                       # miss rate for SCUpgradeReq accesses
system.l2c.ReadExReq_miss_rate::cpu0.data     0.569180                       # miss rate for ReadExReq accesses
system.l2c.ReadExReq_miss_rate::cpu1.data     0.565125                       # miss rate for ReadExReq accesses
system.l2c.ReadExReq_miss_rate::total        0.566956                       # miss rate for ReadExReq accesses
system.l2c.demand_miss_rate::cpu0.dtb.walker     0.000600                       # miss rate for demand accesses
system.l2c.demand_miss_rate::cpu0.itb.walker     0.000737                       # miss rate for demand accesses
system.l2c.demand_miss_rate::cpu0.inst       0.016066                       # miss rate for demand accesses
system.l2c.demand_miss_rate::cpu0.data       0.245539                       # miss rate for demand accesses
system.l2c.demand_miss_rate::cpu1.dtb.walker     0.000550                       # miss rate for demand accesses
system.l2c.demand_miss_rate::cpu1.inst       0.010564                       # miss rate for demand accesses
system.l2c.demand_miss_rate::cpu1.data       0.243829                       # miss rate for demand accesses
system.l2c.demand_miss_rate::total           0.098790                       # miss rate for demand accesses
system.l2c.overall_miss_rate::cpu0.dtb.walker     0.000600                       # miss rate for overall accesses
system.l2c.overall_miss_rate::cpu0.itb.walker     0.000737                       # miss rate for overall accesses
system.l2c.overall_miss_rate::cpu0.inst      0.016066                       # miss rate for overall accesses
system.l2c.overall_miss_rate::cpu0.data      0.245539                       # miss rate for overall accesses
system.l2c.overall_miss_rate::cpu1.dtb.walker     0.000550                       # miss rate for overall accesses
system.l2c.overall_miss_rate::cpu1.inst      0.010564                       # miss rate for overall accesses
system.l2c.overall_miss_rate::cpu1.data      0.243829                       # miss rate for overall accesses
system.l2c.overall_miss_rate::total          0.098790                       # miss rate for overall accesses
system.l2c.ReadReq_avg_miss_latency::cpu0.dtb.walker 66692.307692                       # average ReadReq miss latency
system.l2c.ReadReq_avg_miss_latency::cpu0.itb.walker 62333.333333                       # average ReadReq miss latency
system.l2c.ReadReq_avg_miss_latency::cpu0.inst 55500.238171                       # average ReadReq miss latency
system.l2c.ReadReq_avg_miss_latency::cpu0.data 57649.717901                       # average ReadReq miss latency
system.l2c.ReadReq_avg_miss_latency::cpu1.dtb.walker        73500                       # average ReadReq miss latency
system.l2c.ReadReq_avg_miss_latency::cpu1.inst 60461.630124                       # average ReadReq miss latency
system.l2c.ReadReq_avg_miss_latency::cpu1.data 63311.206145                       # average ReadReq miss latency
system.l2c.ReadReq_avg_miss_latency::total 59235.212415                       # average ReadReq miss latency
system.l2c.UpgradeReq_avg_miss_latency::cpu0.data  1694.999027                       # average UpgradeReq miss latency
system.l2c.UpgradeReq_avg_miss_latency::cpu1.data  3105.700449                       # average UpgradeReq miss latency
system.l2c.UpgradeReq_avg_miss_latency::total  2293.559798                       # average UpgradeReq miss latency
system.l2c.SCUpgradeReq_avg_miss_latency::cpu0.data   955.538222                       # average SCUpgradeReq miss latency
system.l2c.SCUpgradeReq_avg_miss_latency::cpu1.data  6997.596154                       # average SCUpgradeReq miss latency
system.l2c.SCUpgradeReq_avg_miss_latency::total  3333.491012                       # average SCUpgradeReq miss latency
system.l2c.ReadExReq_avg_miss_latency::cpu0.data 49850.191316                       # average ReadExReq miss latency
system.l2c.ReadExReq_avg_miss_latency::cpu1.data 53641.781650                       # average ReadExReq miss latency
system.l2c.ReadExReq_avg_miss_latency::total 51923.423706                       # average ReadExReq miss latency
system.l2c.demand_avg_miss_latency::cpu0.dtb.walker 66692.307692                       # average overall miss latency
system.l2c.demand_avg_miss_latency::cpu0.itb.walker 62333.333333                       # average overall miss latency
system.l2c.demand_avg_miss_latency::cpu0.inst 55500.238171                       # average overall miss latency
system.l2c.demand_avg_miss_latency::cpu0.data 50564.810256                       # average overall miss latency
system.l2c.demand_avg_miss_latency::cpu1.dtb.walker        73500                       # average overall miss latency
system.l2c.demand_avg_miss_latency::cpu1.inst 60461.630124                       # average overall miss latency
system.l2c.demand_avg_miss_latency::cpu1.data 54374.856615                       # average overall miss latency
system.l2c.demand_avg_miss_latency::total 53042.528565                       # average overall miss latency
system.l2c.overall_avg_miss_latency::cpu0.dtb.walker 66692.307692                       # average overall miss latency
system.l2c.overall_avg_miss_latency::cpu0.itb.walker 62333.333333                       # average overall miss latency
system.l2c.overall_avg_miss_latency::cpu0.inst 55500.238171                       # average overall miss latency
system.l2c.overall_avg_miss_latency::cpu0.data 50564.810256                       # average overall miss latency
system.l2c.overall_avg_miss_latency::cpu1.dtb.walker        73500                       # average overall miss latency
system.l2c.overall_avg_miss_latency::cpu1.inst 60461.630124                       # average overall miss latency
system.l2c.overall_avg_miss_latency::cpu1.data 54374.856615                       # average overall miss latency
system.l2c.overall_avg_miss_latency::total 53042.528565                       # average overall miss latency
system.l2c.blocked_cycles::no_mshrs                 0                       # number of cycles access was blocked
system.l2c.blocked_cycles::no_targets               0                       # number of cycles access was blocked
system.l2c.blocked::no_mshrs                        0                       # number of cycles access was blocked
system.l2c.blocked::no_targets                      0                       # number of cycles access was blocked
system.l2c.avg_blocked_cycles::no_mshrs           nan                       # average number of cycles each access was blocked
system.l2c.avg_blocked_cycles::no_targets          nan                       # average number of cycles each access was blocked
system.l2c.fast_writes                              0                       # number of fast writes performed
system.l2c.cache_copies                             0                       # number of cache copies performed
system.l2c.writebacks::writebacks               66562                       # number of writebacks
system.l2c.writebacks::total                    66562                       # number of writebacks
system.l2c.ReadReq_mshr_hits::cpu0.inst             5                       # number of ReadReq MSHR hits
system.l2c.ReadReq_mshr_hits::cpu0.data            38                       # number of ReadReq MSHR hits
system.l2c.ReadReq_mshr_hits::cpu1.inst             8                       # number of ReadReq MSHR hits
system.l2c.ReadReq_mshr_hits::cpu1.data            25                       # number of ReadReq MSHR hits
system.l2c.ReadReq_mshr_hits::total                76                       # number of ReadReq MSHR hits
system.l2c.demand_mshr_hits::cpu0.inst              5                       # number of demand (read+write) MSHR hits
system.l2c.demand_mshr_hits::cpu0.data             38                       # number of demand (read+write) MSHR hits
system.l2c.demand_mshr_hits::cpu1.inst              8                       # number of demand (read+write) MSHR hits
system.l2c.demand_mshr_hits::cpu1.data             25                       # number of demand (read+write) MSHR hits
system.l2c.demand_mshr_hits::total                 76                       # number of demand (read+write) MSHR hits
system.l2c.overall_mshr_hits::cpu0.inst             5                       # number of overall MSHR hits
system.l2c.overall_mshr_hits::cpu0.data            38                       # number of overall MSHR hits
system.l2c.overall_mshr_hits::cpu1.inst             8                       # number of overall MSHR hits
system.l2c.overall_mshr_hits::cpu1.data            25                       # number of overall MSHR hits
system.l2c.overall_mshr_hits::total                76                       # number of overall MSHR hits
system.l2c.ReadReq_mshr_misses::cpu0.dtb.walker           13                       # number of ReadReq MSHR misses
system.l2c.ReadReq_mshr_misses::cpu0.itb.walker            3                       # number of ReadReq MSHR misses
system.l2c.ReadReq_mshr_misses::cpu0.inst         6293                       # number of ReadReq MSHR misses
system.l2c.ReadReq_mshr_misses::cpu0.data         6364                       # number of ReadReq MSHR misses
system.l2c.ReadReq_mshr_misses::cpu1.dtb.walker           17                       # number of ReadReq MSHR misses
system.l2c.ReadReq_mshr_misses::cpu1.inst         6286                       # number of ReadReq MSHR misses
system.l2c.ReadReq_mshr_misses::cpu1.data         6257                       # number of ReadReq MSHR misses
system.l2c.ReadReq_mshr_misses::total           25233                       # number of ReadReq MSHR misses
system.l2c.UpgradeReq_mshr_misses::cpu0.data         5141                       # number of UpgradeReq MSHR misses
system.l2c.UpgradeReq_mshr_misses::cpu1.data         3789                       # number of UpgradeReq MSHR misses
system.l2c.UpgradeReq_mshr_misses::total         8930                       # number of UpgradeReq MSHR misses
system.l2c.SCUpgradeReq_mshr_misses::cpu0.data          641                       # number of SCUpgradeReq MSHR misses
system.l2c.SCUpgradeReq_mshr_misses::cpu1.data          416                       # number of SCUpgradeReq MSHR misses
system.l2c.SCUpgradeReq_mshr_misses::total         1057                       # number of SCUpgradeReq MSHR misses
system.l2c.ReadExReq_mshr_misses::cpu0.data        63471                       # number of ReadExReq MSHR misses
system.l2c.ReadExReq_mshr_misses::cpu1.data        76579                       # number of ReadExReq MSHR misses
system.l2c.ReadExReq_mshr_misses::total        140050                       # number of ReadExReq MSHR misses
system.l2c.demand_mshr_misses::cpu0.dtb.walker           13                       # number of demand (read+write) MSHR misses
system.l2c.demand_mshr_misses::cpu0.itb.walker            3                       # number of demand (read+write) MSHR misses
system.l2c.demand_mshr_misses::cpu0.inst         6293                       # number of demand (read+write) MSHR misses
system.l2c.demand_mshr_misses::cpu0.data        69835                       # number of demand (read+write) MSHR misses
system.l2c.demand_mshr_misses::cpu1.dtb.walker           17                       # number of demand (read+write) MSHR misses
system.l2c.demand_mshr_misses::cpu1.inst         6286                       # number of demand (read+write) MSHR misses
system.l2c.demand_mshr_misses::cpu1.data        82836                       # number of demand (read+write) MSHR misses
system.l2c.demand_mshr_misses::total           165283                       # number of demand (read+write) MSHR misses
system.l2c.overall_mshr_misses::cpu0.dtb.walker           13                       # number of overall MSHR misses
system.l2c.overall_mshr_misses::cpu0.itb.walker            3                       # number of overall MSHR misses
system.l2c.overall_mshr_misses::cpu0.inst         6293                       # number of overall MSHR misses
system.l2c.overall_mshr_misses::cpu0.data        69835                       # number of overall MSHR misses
system.l2c.overall_mshr_misses::cpu1.dtb.walker           17                       # number of overall MSHR misses
system.l2c.overall_mshr_misses::cpu1.inst         6286                       # number of overall MSHR misses
system.l2c.overall_mshr_misses::cpu1.data        82836                       # number of overall MSHR misses
system.l2c.overall_mshr_misses::total          165283                       # number of overall MSHR misses
system.l2c.ReadReq_mshr_miss_latency::cpu0.dtb.walker       703763                       # number of ReadReq MSHR miss cycles
system.l2c.ReadReq_mshr_miss_latency::cpu0.itb.walker       149502                       # number of ReadReq MSHR miss cycles
system.l2c.ReadReq_mshr_miss_latency::cpu0.inst    271011114                       # number of ReadReq MSHR miss cycles
system.l2c.ReadReq_mshr_miss_latency::cpu0.data    287092769                       # number of ReadReq MSHR miss cycles
system.l2c.ReadReq_mshr_miss_latency::cpu1.dtb.walker      1035767                       # number of ReadReq MSHR miss cycles
system.l2c.ReadReq_mshr_miss_latency::cpu1.inst    301672543                       # number of ReadReq MSHR miss cycles
system.l2c.ReadReq_mshr_miss_latency::cpu1.data    317723170                       # number of ReadReq MSHR miss cycles
system.l2c.ReadReq_mshr_miss_latency::total   1179388628                       # number of ReadReq MSHR miss cycles
system.l2c.UpgradeReq_mshr_miss_latency::cpu0.data     51700505                       # number of UpgradeReq MSHR miss cycles
system.l2c.UpgradeReq_mshr_miss_latency::cpu1.data     38483216                       # number of UpgradeReq MSHR miss cycles
system.l2c.UpgradeReq_mshr_miss_latency::total     90183721                       # number of UpgradeReq MSHR miss cycles
system.l2c.SCUpgradeReq_mshr_miss_latency::cpu0.data      6462619                       # number of SCUpgradeReq MSHR miss cycles
system.l2c.SCUpgradeReq_mshr_miss_latency::cpu1.data      4189409                       # number of SCUpgradeReq MSHR miss cycles
system.l2c.SCUpgradeReq_mshr_miss_latency::total     10652028                       # number of SCUpgradeReq MSHR miss cycles
system.l2c.ReadExReq_mshr_miss_latency::cpu0.data   2377449956                       # number of ReadExReq MSHR miss cycles
system.l2c.ReadExReq_mshr_miss_latency::cpu1.data   3149883999                       # number of ReadExReq MSHR miss cycles
system.l2c.ReadExReq_mshr_miss_latency::total   5527333955                       # number of ReadExReq MSHR miss cycles
system.l2c.demand_mshr_miss_latency::cpu0.dtb.walker       703763                       # number of demand (read+write) MSHR miss cycles
system.l2c.demand_mshr_miss_latency::cpu0.itb.walker       149502                       # number of demand (read+write) MSHR miss cycles
system.l2c.demand_mshr_miss_latency::cpu0.inst    271011114                       # number of demand (read+write) MSHR miss cycles
system.l2c.demand_mshr_miss_latency::cpu0.data   2664542725                       # number of demand (read+write) MSHR miss cycles
system.l2c.demand_mshr_miss_latency::cpu1.dtb.walker      1035767                       # number of demand (read+write) MSHR miss cycles
system.l2c.demand_mshr_miss_latency::cpu1.inst    301672543                       # number of demand (read+write) MSHR miss cycles
system.l2c.demand_mshr_miss_latency::cpu1.data   3467607169                       # number of demand (read+write) MSHR miss cycles
system.l2c.demand_mshr_miss_latency::total   6706722583                       # number of demand (read+write) MSHR miss cycles
system.l2c.overall_mshr_miss_latency::cpu0.dtb.walker       703763                       # number of overall MSHR miss cycles
system.l2c.overall_mshr_miss_latency::cpu0.itb.walker       149502                       # number of overall MSHR miss cycles
system.l2c.overall_mshr_miss_latency::cpu0.inst    271011114                       # number of overall MSHR miss cycles
system.l2c.overall_mshr_miss_latency::cpu0.data   2664542725                       # number of overall MSHR miss cycles
system.l2c.overall_mshr_miss_latency::cpu1.dtb.walker      1035767                       # number of overall MSHR miss cycles
system.l2c.overall_mshr_miss_latency::cpu1.inst    301672543                       # number of overall MSHR miss cycles
system.l2c.overall_mshr_miss_latency::cpu1.data   3467607169                       # number of overall MSHR miss cycles
system.l2c.overall_mshr_miss_latency::total   6706722583                       # number of overall MSHR miss cycles
system.l2c.ReadReq_mshr_uncacheable_latency::cpu0.inst      5286835                       # number of ReadReq MSHR uncacheable cycles
system.l2c.ReadReq_mshr_uncacheable_latency::cpu0.data  12406848538                       # number of ReadReq MSHR uncacheable cycles
system.l2c.ReadReq_mshr_uncacheable_latency::cpu1.inst      1838032                       # number of ReadReq MSHR uncacheable cycles
system.l2c.ReadReq_mshr_uncacheable_latency::cpu1.data 154667566747                       # number of ReadReq MSHR uncacheable cycles
system.l2c.ReadReq_mshr_uncacheable_latency::total 167081540152                       # number of ReadReq MSHR uncacheable cycles
system.l2c.WriteReq_mshr_uncacheable_latency::cpu0.data   1050379735                       # number of WriteReq MSHR uncacheable cycles
system.l2c.WriteReq_mshr_uncacheable_latency::cpu1.data  25959313642                       # number of WriteReq MSHR uncacheable cycles
system.l2c.WriteReq_mshr_uncacheable_latency::total  27009693377                       # number of WriteReq MSHR uncacheable cycles
system.l2c.overall_mshr_uncacheable_latency::cpu0.inst      5286835                       # number of overall MSHR uncacheable cycles
system.l2c.overall_mshr_uncacheable_latency::cpu0.data  13457228273                       # number of overall MSHR uncacheable cycles
system.l2c.overall_mshr_uncacheable_latency::cpu1.inst      1838032                       # number of overall MSHR uncacheable cycles
system.l2c.overall_mshr_uncacheable_latency::cpu1.data 180626880389                       # number of overall MSHR uncacheable cycles
system.l2c.overall_mshr_uncacheable_latency::total 194091233529                       # number of overall MSHR uncacheable cycles
system.l2c.ReadReq_mshr_miss_rate::cpu0.dtb.walker     0.000600                       # mshr miss rate for ReadReq accesses
system.l2c.ReadReq_mshr_miss_rate::cpu0.itb.walker     0.000737                       # mshr miss rate for ReadReq accesses
system.l2c.ReadReq_mshr_miss_rate::cpu0.inst     0.016053                       # mshr miss rate for ReadReq accesses
system.l2c.ReadReq_mshr_miss_rate::cpu0.data     0.036774                       # mshr miss rate for ReadReq accesses
system.l2c.ReadReq_mshr_miss_rate::cpu1.dtb.walker     0.000550                       # mshr miss rate for ReadReq accesses
system.l2c.ReadReq_mshr_miss_rate::cpu1.inst     0.010551                       # mshr miss rate for ReadReq accesses
system.l2c.ReadReq_mshr_miss_rate::cpu1.data     0.030623                       # mshr miss rate for ReadReq accesses
system.l2c.ReadReq_mshr_miss_rate::total     0.017685                       # mshr miss rate for ReadReq accesses
system.l2c.UpgradeReq_mshr_miss_rate::cpu0.data     0.819805                       # mshr miss rate for UpgradeReq accesses
system.l2c.UpgradeReq_mshr_miss_rate::cpu1.data     0.836239                       # mshr miss rate for UpgradeReq accesses
system.l2c.UpgradeReq_mshr_miss_rate::total     0.826699                       # mshr miss rate for UpgradeReq accesses
system.l2c.SCUpgradeReq_mshr_miss_rate::cpu0.data     0.768585                       # mshr miss rate for SCUpgradeReq accesses
system.l2c.SCUpgradeReq_mshr_miss_rate::cpu1.data     0.738899                       # mshr miss rate for SCUpgradeReq accesses
system.l2c.SCUpgradeReq_mshr_miss_rate::total     0.756621                       # mshr miss rate for SCUpgradeReq accesses
system.l2c.ReadExReq_mshr_miss_rate::cpu0.data     0.569180                       # mshr miss rate for ReadExReq accesses
system.l2c.ReadExReq_mshr_miss_rate::cpu1.data     0.565125                       # mshr miss rate for ReadExReq accesses
system.l2c.ReadExReq_mshr_miss_rate::total     0.566956                       # mshr miss rate for ReadExReq accesses
system.l2c.demand_mshr_miss_rate::cpu0.dtb.walker     0.000600                       # mshr miss rate for demand accesses
system.l2c.demand_mshr_miss_rate::cpu0.itb.walker     0.000737                       # mshr miss rate for demand accesses
system.l2c.demand_mshr_miss_rate::cpu0.inst     0.016053                       # mshr miss rate for demand accesses
system.l2c.demand_mshr_miss_rate::cpu0.data     0.245405                       # mshr miss rate for demand accesses
system.l2c.demand_mshr_miss_rate::cpu1.dtb.walker     0.000550                       # mshr miss rate for demand accesses
system.l2c.demand_mshr_miss_rate::cpu1.inst     0.010551                       # mshr miss rate for demand accesses
system.l2c.demand_mshr_miss_rate::cpu1.data     0.243756                       # mshr miss rate for demand accesses
system.l2c.demand_mshr_miss_rate::total      0.098744                       # mshr miss rate for demand accesses
system.l2c.overall_mshr_miss_rate::cpu0.dtb.walker     0.000600                       # mshr miss rate for overall accesses
system.l2c.overall_mshr_miss_rate::cpu0.itb.walker     0.000737                       # mshr miss rate for overall accesses
system.l2c.overall_mshr_miss_rate::cpu0.inst     0.016053                       # mshr miss rate for overall accesses
system.l2c.overall_mshr_miss_rate::cpu0.data     0.245405                       # mshr miss rate for overall accesses
system.l2c.overall_mshr_miss_rate::cpu1.dtb.walker     0.000550                       # mshr miss rate for overall accesses
system.l2c.overall_mshr_miss_rate::cpu1.inst     0.010551                       # mshr miss rate for overall accesses
system.l2c.overall_mshr_miss_rate::cpu1.data     0.243756                       # mshr miss rate for overall accesses
system.l2c.overall_mshr_miss_rate::total     0.098744                       # mshr miss rate for overall accesses
system.l2c.ReadReq_avg_mshr_miss_latency::cpu0.dtb.walker 54135.615385                       # average ReadReq mshr miss latency
system.l2c.ReadReq_avg_mshr_miss_latency::cpu0.itb.walker        49834                       # average ReadReq mshr miss latency
system.l2c.ReadReq_avg_mshr_miss_latency::cpu0.inst 43065.487685                       # average ReadReq mshr miss latency
system.l2c.ReadReq_avg_mshr_miss_latency::cpu0.data 45112.000157                       # average ReadReq mshr miss latency
system.l2c.ReadReq_avg_mshr_miss_latency::cpu1.dtb.walker 60927.470588                       # average ReadReq mshr miss latency
system.l2c.ReadReq_avg_mshr_miss_latency::cpu1.inst 47991.177696                       # average ReadReq mshr miss latency
system.l2c.ReadReq_avg_mshr_miss_latency::cpu1.data 50778.834905                       # average ReadReq mshr miss latency
system.l2c.ReadReq_avg_mshr_miss_latency::total 46739.928982                       # average ReadReq mshr miss latency
system.l2c.UpgradeReq_avg_mshr_miss_latency::cpu0.data 10056.507489                       # average UpgradeReq mshr miss latency
system.l2c.UpgradeReq_avg_mshr_miss_latency::cpu1.data 10156.562681                       # average UpgradeReq mshr miss latency
system.l2c.UpgradeReq_avg_mshr_miss_latency::total 10098.960918                       # average UpgradeReq mshr miss latency
system.l2c.SCUpgradeReq_avg_mshr_miss_latency::cpu0.data 10082.088924                       # average SCUpgradeReq mshr miss latency
system.l2c.SCUpgradeReq_avg_mshr_miss_latency::cpu1.data 10070.694712                       # average SCUpgradeReq mshr miss latency
system.l2c.SCUpgradeReq_avg_mshr_miss_latency::total 10077.604541                       # average SCUpgradeReq mshr miss latency
system.l2c.ReadExReq_avg_mshr_miss_latency::cpu0.data 37457.263254                       # average ReadExReq mshr miss latency
system.l2c.ReadExReq_avg_mshr_miss_latency::cpu1.data 41132.477559                       # average ReadExReq mshr miss latency
system.l2c.ReadExReq_avg_mshr_miss_latency::total 39466.861514                       # average ReadExReq mshr miss latency
system.l2c.demand_avg_mshr_miss_latency::cpu0.dtb.walker 54135.615385                       # average overall mshr miss latency
system.l2c.demand_avg_mshr_miss_latency::cpu0.itb.walker        49834                       # average overall mshr miss latency
system.l2c.demand_avg_mshr_miss_latency::cpu0.inst 43065.487685                       # average overall mshr miss latency
system.l2c.demand_avg_mshr_miss_latency::cpu0.data 38154.832462                       # average overall mshr miss latency
system.l2c.demand_avg_mshr_miss_latency::cpu1.dtb.walker 60927.470588                       # average overall mshr miss latency
system.l2c.demand_avg_mshr_miss_latency::cpu1.inst 47991.177696                       # average overall mshr miss latency
system.l2c.demand_avg_mshr_miss_latency::cpu1.data 41861.113151                       # average overall mshr miss latency
system.l2c.demand_avg_mshr_miss_latency::total 40577.207474                       # average overall mshr miss latency
system.l2c.overall_avg_mshr_miss_latency::cpu0.dtb.walker 54135.615385                       # average overall mshr miss latency
system.l2c.overall_avg_mshr_miss_latency::cpu0.itb.walker        49834                       # average overall mshr miss latency
system.l2c.overall_avg_mshr_miss_latency::cpu0.inst 43065.487685                       # average overall mshr miss latency
system.l2c.overall_avg_mshr_miss_latency::cpu0.data 38154.832462                       # average overall mshr miss latency
system.l2c.overall_avg_mshr_miss_latency::cpu1.dtb.walker 60927.470588                       # average overall mshr miss latency
system.l2c.overall_avg_mshr_miss_latency::cpu1.inst 47991.177696                       # average overall mshr miss latency
system.l2c.overall_avg_mshr_miss_latency::cpu1.data 41861.113151                       # average overall mshr miss latency
system.l2c.overall_avg_mshr_miss_latency::total 40577.207474                       # average overall mshr miss latency
system.l2c.ReadReq_avg_mshr_uncacheable_latency::cpu0.inst          inf                       # average ReadReq mshr uncacheable latency
system.l2c.ReadReq_avg_mshr_uncacheable_latency::cpu0.data          inf                       # average ReadReq mshr uncacheable latency
system.l2c.ReadReq_avg_mshr_uncacheable_latency::cpu1.inst          inf                       # average ReadReq mshr uncacheable latency
system.l2c.ReadReq_avg_mshr_uncacheable_latency::cpu1.data          inf                       # average ReadReq mshr uncacheable latency
system.l2c.ReadReq_avg_mshr_uncacheable_latency::total          inf                       # average ReadReq mshr uncacheable latency
system.l2c.WriteReq_avg_mshr_uncacheable_latency::cpu0.data          inf                       # average WriteReq mshr uncacheable latency
system.l2c.WriteReq_avg_mshr_uncacheable_latency::cpu1.data          inf                       # average WriteReq mshr uncacheable latency
system.l2c.WriteReq_avg_mshr_uncacheable_latency::total          inf                       # average WriteReq mshr uncacheable latency
system.l2c.overall_avg_mshr_uncacheable_latency::cpu0.inst          inf                       # average overall mshr uncacheable latency
system.l2c.overall_avg_mshr_uncacheable_latency::cpu0.data          inf                       # average overall mshr uncacheable latency
system.l2c.overall_avg_mshr_uncacheable_latency::cpu1.inst          inf                       # average overall mshr uncacheable latency
system.l2c.overall_avg_mshr_uncacheable_latency::cpu1.data          inf                       # average overall mshr uncacheable latency
system.l2c.overall_avg_mshr_uncacheable_latency::total          inf                       # average overall mshr uncacheable latency
system.l2c.no_allocate_misses                       0                       # Number of misses that were no-allocate
system.cf0.dma_read_full_pages                      0                       # Number of full page size DMA reads (not PRD).
system.cf0.dma_read_bytes                           0                       # Number of bytes transfered via DMA reads (not PRD).
system.cf0.dma_read_txs                             0                       # Number of DMA read transactions (not PRD).
system.cf0.dma_write_full_pages                     0                       # Number of full page size DMA writes.
system.cf0.dma_write_bytes                          0                       # Number of bytes transfered via DMA writes.
system.cf0.dma_write_txs                            0                       # Number of DMA write transactions.
system.cpu0.branchPred.lookups                5991996                       # Number of BP lookups
system.cpu0.branchPred.condPredicted          4570590                       # Number of conditional branches predicted
system.cpu0.branchPred.condIncorrect           295222                       # Number of conditional branches incorrect
system.cpu0.branchPred.BTBLookups             3736406                       # Number of BTB lookups
system.cpu0.branchPred.BTBHits                2908427                       # Number of BTB hits
system.cpu0.branchPred.BTBCorrect                   0                       # Number of correct BTB predictions (this stat may not work properly.
system.cpu0.branchPred.BTBHitPct            77.840229                       # BTB Hit Percentage
system.cpu0.branchPred.usedRAS                 670993                       # Number of times the RAS was used to get a target.
system.cpu0.branchPred.RASInCorrect             28752                       # Number of incorrect RAS predictions.
system.cpu0.dtb.inst_hits                           0                       # ITB inst hits
system.cpu0.dtb.inst_misses                         0                       # ITB inst misses
system.cpu0.dtb.read_hits                     8901229                       # DTB read hits
system.cpu0.dtb.read_misses                     28750                       # DTB read misses
system.cpu0.dtb.write_hits                    5135502                       # DTB write hits
system.cpu0.dtb.write_misses                     5613                       # DTB write misses
system.cpu0.dtb.flush_tlb                           4                       # Number of times complete TLB was flushed
system.cpu0.dtb.flush_tlb_mva                       0                       # Number of times TLB was flushed by MVA
system.cpu0.dtb.flush_tlb_mva_asid               1439                       # Number of times TLB was flushed by MVA & ASID
system.cpu0.dtb.flush_tlb_asid                     63                       # Number of times TLB was flushed by ASID
system.cpu0.dtb.flush_entries                    1817                       # Number of entries that have been flushed from TLB
system.cpu0.dtb.align_faults                      968                       # Number of TLB faults due to alignment restrictions
system.cpu0.dtb.prefetch_faults                   288                       # Number of TLB faults due to prefetch
system.cpu0.dtb.domain_faults                       0                       # Number of TLB faults due to domain restrictions
system.cpu0.dtb.perms_faults                      548                       # Number of TLB faults due to permissions restrictions
system.cpu0.dtb.read_accesses                 8929979                       # DTB read accesses
system.cpu0.dtb.write_accesses                5141115                       # DTB write accesses
system.cpu0.dtb.inst_accesses                       0                       # ITB inst accesses
system.cpu0.dtb.hits                         14036731                       # DTB hits
system.cpu0.dtb.misses                          34363                       # DTB misses
system.cpu0.dtb.accesses                     14071094                       # DTB accesses
system.cpu0.itb.inst_hits                     4213364                       # ITB inst hits
[...]
system.cpu1.dcache.demand_misses::cpu1.data      1955852                       # number of demand (read+write) misses
system.cpu1.dcache.demand_misses::total       1955852                       # number of demand (read+write) misses
system.cpu1.dcache.overall_misses::cpu1.data      1955852                       # number of overall misses
system.cpu1.dcache.overall_misses::total      1955852                       # number of overall misses
system.cpu1.dcache.ReadReq_miss_latency::cpu1.data   6096380000                       # number of ReadReq miss cycles
system.cpu1.dcache.ReadReq_miss_latency::total   6096380000                       # number of ReadReq miss cycles
system.cpu1.dcache.WriteReq_miss_latency::cpu1.data  61399313493                       # number of WriteReq miss cycles
system.cpu1.dcache.WriteReq_miss_latency::total  61399313493                       # number of WriteReq miss cycles
system.cpu1.dcache.LoadLockedReq_miss_latency::cpu1.data    129350500                       # number of LoadLockedReq miss cycles
system.cpu1.dcache.LoadLockedReq_miss_latency::total    129350500                       # number of LoadLockedReq miss cycles
system.cpu1.dcache.StoreCondReq_miss_latency::cpu1.data     53940000                       # number of StoreCondReq miss cycles
system.cpu1.dcache.StoreCondReq_miss_latency::total     53940000                       # number of StoreCondReq miss cycles
system.cpu1.dcache.demand_miss_latency::cpu1.data  67495693493                       # number of demand (read+write) miss cycles
system.cpu1.dcache.demand_miss_latency::total  67495693493                       # number of demand (read+write) miss cycles
system.cpu1.dcache.overall_miss_latency::cpu1.data  67495693493                       # number of overall miss cycles
system.cpu1.dcache.overall_miss_latency::total  67495693493                       # number of overall miss cycles
system.cpu1.dcache.ReadReq_accesses::cpu1.data      8707310                       # number of ReadReq accesses(hits+misses)
system.cpu1.dcache.ReadReq_accesses::total      8707310                       # number of ReadReq accesses(hits+misses)
system.cpu1.dcache.WriteReq_accesses::cpu1.data      5695469                       # number of WriteReq accesses(hits+misses)
system.cpu1.dcache.WriteReq_accesses::total      5695469                       # number of WriteReq accesses(hits+misses)
system.cpu1.dcache.LoadLockedReq_accesses::cpu1.data       111598                       # number of LoadLockedReq accesses(hits+misses)
system.cpu1.dcache.LoadLockedReq_accesses::total       111598                       # number of LoadLockedReq accesses(hits+misses)
system.cpu1.dcache.StoreCondReq_accesses::cpu1.data       105484                       # number of StoreCondReq accesses(hits+misses)
system.cpu1.dcache.StoreCondReq_accesses::total       105484                       # number of StoreCondReq accesses(hits+misses)
system.cpu1.dcache.demand_accesses::cpu1.data     14402779                       # number of demand (read+write) accesses
system.cpu1.dcache.demand_accesses::total     14402779                       # number of demand (read+write) accesses
system.cpu1.dcache.overall_accesses::cpu1.data     14402779                       # number of overall (read+write) accesses
system.cpu1.dcache.overall_accesses::total     14402779                       # number of overall (read+write) accesses
system.cpu1.dcache.ReadReq_miss_rate::cpu1.data     0.045860                       # miss rate for ReadReq accesses
system.cpu1.dcache.ReadReq_miss_rate::total     0.045860                       # miss rate for ReadReq accesses
system.cpu1.dcache.WriteReq_miss_rate::cpu1.data     0.273294                       # miss rate for WriteReq accesses
system.cpu1.dcache.WriteReq_miss_rate::total     0.273294                       # miss rate for WriteReq accesses
system.cpu1.dcache.LoadLockedReq_miss_rate::cpu1.data     0.125011                       # miss rate for LoadLockedReq accesses
system.cpu1.dcache.LoadLockedReq_miss_rate::total     0.125011                       # miss rate for LoadLockedReq accesses
system.cpu1.dcache.StoreCondReq_miss_rate::cpu1.data     0.100650                       # miss rate for StoreCondReq accesses
system.cpu1.dcache.StoreCondReq_miss_rate::total     0.100650                       # miss rate for StoreCondReq accesses
system.cpu1.dcache.demand_miss_rate::cpu1.data     0.135797                       # miss rate for demand accesses
system.cpu1.dcache.demand_miss_rate::total     0.135797                       # miss rate for demand accesses
system.cpu1.dcache.overall_miss_rate::cpu1.data     0.135797                       # miss rate for overall accesses
system.cpu1.dcache.overall_miss_rate::total     0.135797                       # miss rate for overall accesses
system.cpu1.dcache.ReadReq_avg_miss_latency::cpu1.data 15267.056667                       # average ReadReq miss latency
system.cpu1.dcache.ReadReq_avg_miss_latency::total 15267.056667                       # average ReadReq miss latency
system.cpu1.dcache.WriteReq_avg_miss_latency::cpu1.data 39446.124916                       # average WriteReq miss latency
system.cpu1.dcache.WriteReq_avg_miss_latency::total 39446.124916                       # average WriteReq miss latency
system.cpu1.dcache.LoadLockedReq_avg_miss_latency::cpu1.data  9271.772633                       # average LoadLockedReq miss latency
system.cpu1.dcache.LoadLockedReq_avg_miss_latency::total  9271.772633                       # average LoadLockedReq miss latency
system.cpu1.dcache.StoreCondReq_avg_miss_latency::cpu1.data  5080.531224                       # average StoreCondReq miss latency
system.cpu1.dcache.StoreCondReq_avg_miss_latency::total  5080.531224                       # average StoreCondReq miss latency
system.cpu1.dcache.demand_avg_miss_latency::cpu1.data 34509.611920                       # average overall miss latency
system.cpu1.dcache.demand_avg_miss_latency::total 34509.611920                       # average overall miss latency
system.cpu1.dcache.overall_avg_miss_latency::cpu1.data 34509.611920                       # average overall miss latency
system.cpu1.dcache.overall_avg_miss_latency::total 34509.611920                       # average overall miss latency
system.cpu1.dcache.blocked_cycles::no_mshrs        27560                       # number of cycles access was blocked
system.cpu1.dcache.blocked_cycles::no_targets        11546                       # number of cycles access was blocked
system.cpu1.dcache.blocked::no_mshrs             3309                       # number of cycles access was blocked
system.cpu1.dcache.blocked::no_targets            159                       # number of cycles access was blocked
system.cpu1.dcache.avg_blocked_cycles::no_mshrs     8.328800                       # average number of cycles each access was blocked
system.cpu1.dcache.avg_blocked_cycles::no_targets    72.616352                       # average number of cycles each access was blocked
system.cpu1.dcache.fast_writes                      0                       # number of fast writes performed
system.cpu1.dcache.cache_copies                     0                       # number of cache copies performed
system.cpu1.dcache.writebacks::writebacks       324541                       # number of writebacks
system.cpu1.dcache.writebacks::total           324541                       # number of writebacks
system.cpu1.dcache.ReadReq_mshr_hits::cpu1.data       171136                       # number of ReadReq MSHR hits
system.cpu1.dcache.ReadReq_mshr_hits::total       171136                       # number of ReadReq MSHR hits
system.cpu1.dcache.WriteReq_mshr_hits::cpu1.data      1394941                       # number of WriteReq MSHR hits
system.cpu1.dcache.WriteReq_mshr_hits::total      1394941                       # number of WriteReq MSHR hits
system.cpu1.dcache.LoadLockedReq_mshr_hits::cpu1.data         1433                       # number of LoadLockedReq MSHR hits
system.cpu1.dcache.LoadLockedReq_mshr_hits::total         1433                       # number of LoadLockedReq MSHR hits
system.cpu1.dcache.demand_mshr_hits::cpu1.data      1566077                       # number of demand (read+write) MSHR hits
system.cpu1.dcache.demand_mshr_hits::total      1566077                       # number of demand (read+write) MSHR hits
system.cpu1.dcache.overall_mshr_hits::cpu1.data      1566077                       # number of overall MSHR hits
system.cpu1.dcache.overall_mshr_hits::total      1566077                       # number of overall MSHR hits
system.cpu1.dcache.ReadReq_mshr_misses::cpu1.data       228180                       # number of ReadReq MSHR misses
system.cpu1.dcache.ReadReq_mshr_misses::total       228180                       # number of ReadReq MSHR misses
system.cpu1.dcache.WriteReq_mshr_misses::cpu1.data       161595                       # number of WriteReq MSHR misses
system.cpu1.dcache.WriteReq_mshr_misses::total       161595                       # number of WriteReq MSHR misses
system.cpu1.dcache.LoadLockedReq_mshr_misses::cpu1.data        12518                       # number of LoadLockedReq MSHR misses
system.cpu1.dcache.LoadLockedReq_mshr_misses::total        12518                       # number of LoadLockedReq MSHR misses
system.cpu1.dcache.StoreCondReq_mshr_misses::cpu1.data        10611                       # number of StoreCondReq MSHR misses
system.cpu1.dcache.StoreCondReq_mshr_misses::total        10611                       # number of StoreCondReq MSHR misses
system.cpu1.dcache.demand_mshr_misses::cpu1.data       389775                       # number of demand (read+write) MSHR misses
system.cpu1.dcache.demand_mshr_misses::total       389775                       # number of demand (read+write) MSHR misses
system.cpu1.dcache.overall_mshr_misses::cpu1.data       389775                       # number of overall MSHR misses
system.cpu1.dcache.overall_mshr_misses::total       389775                       # number of overall MSHR misses
system.cpu1.dcache.ReadReq_mshr_miss_latency::cpu1.data   2858069500                       # number of ReadReq MSHR miss cycles
system.cpu1.dcache.ReadReq_mshr_miss_latency::total   2858069500                       # number of ReadReq MSHR miss cycles
system.cpu1.dcache.WriteReq_mshr_miss_latency::cpu1.data   5115737712                       # number of WriteReq MSHR miss cycles
system.cpu1.dcache.WriteReq_mshr_miss_latency::total   5115737712                       # number of WriteReq MSHR miss cycles
system.cpu1.dcache.LoadLockedReq_mshr_miss_latency::cpu1.data     88636500                       # number of LoadLockedReq MSHR miss cycles
system.cpu1.dcache.LoadLockedReq_mshr_miss_latency::total     88636500                       # number of LoadLockedReq MSHR miss cycles
system.cpu1.dcache.StoreCondReq_mshr_miss_latency::cpu1.data     32718000                       # number of StoreCondReq MSHR miss cycles
system.cpu1.dcache.StoreCondReq_mshr_miss_latency::total     32718000                       # number of StoreCondReq MSHR miss cycles
system.cpu1.dcache.demand_mshr_miss_latency::cpu1.data   7973807212                       # number of demand (read+write) MSHR miss cycles
system.cpu1.dcache.demand_mshr_miss_latency::total   7973807212                       # number of demand (read+write) MSHR miss cycles
system.cpu1.dcache.overall_mshr_miss_latency::cpu1.data   7973807212                       # number of overall MSHR miss cycles
system.cpu1.dcache.overall_mshr_miss_latency::total   7973807212                       # number of overall MSHR miss cycles
system.cpu1.dcache.ReadReq_mshr_uncacheable_latency::cpu1.data 168990097000                       # number of ReadReq MSHR uncacheable cycles
system.cpu1.dcache.ReadReq_mshr_uncacheable_latency::total 168990097000                       # number of ReadReq MSHR uncacheable cycles
system.cpu1.dcache.WriteReq_mshr_uncacheable_latency::cpu1.data  35704290190                       # number of WriteReq MSHR uncacheable cycles
system.cpu1.dcache.WriteReq_mshr_uncacheable_latency::total  35704290190                       # number of WriteReq MSHR uncacheable cycles
system.cpu1.dcache.overall_mshr_uncacheable_latency::cpu1.data 204694387190                       # number of overall MSHR uncacheable cycles
system.cpu1.dcache.overall_mshr_uncacheable_latency::total 204694387190                       # number of overall MSHR uncacheable cycles
system.cpu1.dcache.ReadReq_mshr_miss_rate::cpu1.data     0.026206                       # mshr miss rate for ReadReq accesses
system.cpu1.dcache.ReadReq_mshr_miss_rate::total     0.026206                       # mshr miss rate for ReadReq accesses
system.cpu1.dcache.WriteReq_mshr_miss_rate::cpu1.data     0.028373                       # mshr miss rate for WriteReq accesses
system.cpu1.dcache.WriteReq_mshr_miss_rate::total     0.028373                       # mshr miss rate for WriteReq accesses
system.cpu1.dcache.LoadLockedReq_mshr_miss_rate::cpu1.data     0.112170                       # mshr miss rate for LoadLockedReq accesses
system.cpu1.dcache.LoadLockedReq_mshr_miss_rate::total     0.112170                       # mshr miss rate for LoadLockedReq accesses
system.cpu1.dcache.StoreCondReq_mshr_miss_rate::cpu1.data     0.100593                       # mshr miss rate for StoreCondReq accesses
system.cpu1.dcache.StoreCondReq_mshr_miss_rate::total     0.100593                       # mshr miss rate for StoreCondReq accesses
system.cpu1.dcache.demand_mshr_miss_rate::cpu1.data     0.027062                       # mshr miss rate for demand accesses
system.cpu1.dcache.demand_mshr_miss_rate::total     0.027062                       # mshr miss rate for demand accesses
system.cpu1.dcache.overall_mshr_miss_rate::cpu1.data     0.027062                       # mshr miss rate for overall accesses
system.cpu1.dcache.overall_mshr_miss_rate::total     0.027062                       # mshr miss rate for overall accesses
system.cpu1.dcache.ReadReq_avg_mshr_miss_latency::cpu1.data 12525.503988                       # average ReadReq mshr miss latency
system.cpu1.dcache.ReadReq_avg_mshr_miss_latency::total 12525.503988                       # average ReadReq mshr miss latency
system.cpu1.dcache.WriteReq_avg_mshr_miss_latency::cpu1.data 31657.772283                       # average WriteReq mshr miss latency
system.cpu1.dcache.WriteReq_avg_mshr_miss_latency::total 31657.772283                       # average WriteReq mshr miss latency
system.cpu1.dcache.LoadLockedReq_avg_mshr_miss_latency::cpu1.data  7080.723758                       # average LoadLockedReq mshr miss latency
system.cpu1.dcache.LoadLockedReq_avg_mshr_miss_latency::total  7080.723758                       # average LoadLockedReq mshr miss latency
system.cpu1.dcache.StoreCondReq_avg_mshr_miss_latency::cpu1.data  3083.404015                       # average StoreCondReq mshr miss latency
system.cpu1.dcache.StoreCondReq_avg_mshr_miss_latency::total  3083.404015                       # average StoreCondReq mshr miss latency
system.cpu1.dcache.demand_avg_mshr_miss_latency::cpu1.data 20457.461900                       # average overall mshr miss latency
system.cpu1.dcache.demand_avg_mshr_miss_latency::total 20457.461900                       # average overall mshr miss latency
system.cpu1.dcache.overall_avg_mshr_miss_latency::cpu1.data 20457.461900                       # average overall mshr miss latency
system.cpu1.dcache.overall_avg_mshr_miss_latency::total 20457.461900                       # average overall mshr miss latency
system.cpu1.dcache.ReadReq_avg_mshr_uncacheable_latency::cpu1.data          inf                       # average ReadReq mshr uncacheable latency
system.cpu1.dcache.ReadReq_avg_mshr_uncacheable_latency::total          inf                       # average ReadReq mshr uncacheable latency
system.cpu1.dcache.WriteReq_avg_mshr_uncacheable_latency::cpu1.data          inf                       # average WriteReq mshr uncacheable latency
system.cpu1.dcache.WriteReq_avg_mshr_uncacheable_latency::total          inf                       # average WriteReq mshr uncacheable latency
system.cpu1.dcache.overall_avg_mshr_uncacheable_latency::cpu1.data          inf                       # average overall mshr uncacheable latency
system.cpu1.dcache.overall_avg_mshr_uncacheable_latency::total          inf                       # average overall mshr uncacheable latency
system.cpu1.dcache.no_allocate_misses               0                       # Number of misses that were no-allocate
system.iocache.replacements                         0                       # number of replacements
system.iocache.tagsinuse                            0                       # Cycle average of tags in use
system.iocache.total_refs                           0                       # Total number of references to valid blocks.
system.iocache.sampled_refs                         0                       # Sample count of references to valid blocks.
system.iocache.avg_refs                           nan                       # Average number of references to valid blocks.
system.iocache.warmup_cycle                         0                       # Cycle when the warmup percentage was hit.
system.iocache.blocked_cycles::no_mshrs             0                       # number of cycles access was blocked
system.iocache.blocked_cycles::no_targets            0                       # number of cycles access was blocked
system.iocache.blocked::no_mshrs                    0                       # number of cycles access was blocked
system.iocache.blocked::no_targets                  0                       # number of cycles access was blocked
system.iocache.avg_blocked_cycles::no_mshrs          nan                       # average number of cycles each access was blocked
system.iocache.avg_blocked_cycles::no_targets          nan                       # average number of cycles each access was blocked
system.iocache.fast_writes                          0                       # number of fast writes performed
system.iocache.cache_copies                         0                       # number of cache copies performed
system.iocache.ReadReq_mshr_uncacheable_latency::realview.clcd 540179772418                       # number of ReadReq MSHR uncacheable cycles
system.iocache.ReadReq_mshr_uncacheable_latency::total 540179772418                       # number of ReadReq MSHR uncacheable cycles
system.iocache.overall_mshr_uncacheable_latency::realview.clcd 540179772418                       # number of overall MSHR uncacheable cycles
system.iocache.overall_mshr_uncacheable_latency::total 540179772418                       # number of overall MSHR uncacheable cycles
system.iocache.ReadReq_avg_mshr_uncacheable_latency::realview.clcd          inf                       # average ReadReq mshr uncacheable latency
system.iocache.ReadReq_avg_mshr_uncacheable_latency::total          inf                       # average ReadReq mshr uncacheable latency
system.iocache.overall_avg_mshr_uncacheable_latency::realview.clcd          inf                       # average overall mshr uncacheable latency
system.iocache.overall_avg_mshr_uncacheable_latency::total          inf                       # average overall mshr uncacheable latency
system.iocache.no_allocate_misses                   0                       # Number of misses that were no-allocate
system.cpu0.kern.inst.arm                           0                       # number of arm instructions executed
system.cpu0.kern.inst.quiesce                   41712                       # number of quiesce instructions executed
system.cpu1.kern.inst.arm                           0                       # number of arm instructions executed
system.cpu1.kern.inst.quiesce                   48858                       # number of quiesce instructions executed

---------- End Simulation Statistics   ----------
