
---------- Begin Simulation Statistics ----------
sim_seconds                                  2.605623                       # Number of seconds simulated
sim_ticks                                2605623216500                       # Number of ticks simulated
final_tick                               2605623216500                       # Number of ticks from beginning of simulation (restored from checkpoints and never reset)
sim_freq                                 1000000000000                       # Frequency of simulated ticks
host_inst_rate                                  60428                       # Simulator instruction rate (inst/s)
host_op_rate                                    77810                       # Simulator op (including micro ops) rate (op/s)
host_tick_rate                             2507107577                       # Simulator tick rate (ticks/s)
host_mem_usage                                 430512                       # Number of bytes of host memory used
host_seconds                                  1039.29                       # Real time elapsed on the host
sim_insts                                    62801984                       # Number of instructions simulated
sim_ops                                      80867321                       # Number of ops (including micro ops) simulated
system.voltage_domain.voltage                       1                       # Voltage in Volts
system.clk_domain.clock                          1000                       # Clock period in ticks
system.physmem.bytes_read::realview.clcd    121110528                       # Number of bytes read from this memory
system.physmem.bytes_read::cpu0.dtb.walker          832                       # Number of bytes read from this memory
system.physmem.bytes_read::cpu0.itb.walker          128                       # Number of bytes read from this memory
system.physmem.bytes_read::cpu0.inst           395008                       # Number of bytes read from this memory
system.physmem.bytes_read::cpu0.data          4350396                       # Number of bytes read from this memory
system.physmem.bytes_read::cpu1.dtb.walker         1088                       # Number of bytes read from this memory
system.physmem.bytes_read::cpu1.inst           426880                       # Number of bytes read from this memory
system.physmem.bytes_read::cpu1.data          5253880                       # Number of bytes read from this memory
system.physmem.bytes_read::total            131538740                       # Number of bytes read from this memory
system.physmem.bytes_inst_read::cpu0.inst       395008                       # Number of instructions bytes read from this memory
system.physmem.bytes_inst_read::cpu1.inst       426880                       # Number of instructions bytes read from this memory
system.physmem.bytes_inst_read::total          821888                       # Number of instructions bytes read from this memory
system.physmem.bytes_written::writebacks      4261184                       # Number of bytes written to this memory
system.physmem.bytes_written::cpu0.data         17000                       # Number of bytes written to this memory
system.physmem.bytes_written::cpu1.data       3012136                       # Number of bytes written to this memory
system.physmem.bytes_written::total           7290320                       # Number of bytes written to this memory
system.physmem.num_reads::realview.clcd      15138816                       # Number of read requests responded to by this memory
system.physmem.num_reads::cpu0.dtb.walker           13                       # Number of read requests responded to by this memory
system.physmem.num_reads::cpu0.itb.walker            2                       # Number of read requests responded to by this memory
system.physmem.num_reads::cpu0.inst              6172                       # Number of read requests responded to by this memory
system.physmem.num_reads::cpu0.data             68049                       # Number of read requests responded to by this memory
system.physmem.num_reads::cpu1.dtb.walker           17                       # Number of read requests responded to by this memory
system.physmem.num_reads::cpu1.inst              6670                       # Number of read requests responded to by this memory
system.physmem.num_reads::cpu1.data             82120                       # Number of read requests responded to by this memory
system.physmem.num_reads::total              15301859                       # Number of read requests responded to by this memory
system.physmem.num_writes::writebacks           66581                       # Number of write requests responded to by this memory
system.physmem.num_writes::cpu0.data             4250                       # Number of write requests responded to by this memory
system.physmem.num_writes::cpu1.data           753034                       # Number of write requests responded to by this memory
system.physmem.num_writes::total               823865                       # Number of write requests responded to by this memory
system.physmem.bw_read::realview.clcd        46480446                       # Total read bandwidth from this memory (bytes/s)
system.physmem.bw_read::cpu0.dtb.walker           319                       # Total read bandwidth from this memory (bytes/s)
system.physmem.bw_read::cpu0.itb.walker            49                       # Total read bandwidth from this memory (bytes/s)
system.physmem.bw_read::cpu0.inst              151598                       # Total read bandwidth from this memory (bytes/s)
system.physmem.bw_read::cpu0.data             1669618                       # Total read bandwidth from this memory (bytes/s)
system.physmem.bw_read::cpu1.dtb.walker           418                       # Total read bandwidth from this memory (bytes/s)
system.physmem.bw_read::cpu1.inst              163830                       # Total read bandwidth from this memory (bytes/s)
system.physmem.bw_read::cpu1.data             2016362                       # Total read bandwidth from this memory (bytes/s)
system.physmem.bw_read::total                50482640                       # Total read bandwidth from this memory (bytes/s)
system.physmem.bw_inst_read::cpu0.inst         151598                       # Instruction read bandwidth from this memory (bytes/s)
system.physmem.bw_inst_read::cpu1.inst         163830                       # Instruction read bandwidth from this memory (bytes/s)
system.physmem.bw_inst_read::total             315429                       # Instruction read bandwidth from this memory (bytes/s)
system.physmem.bw_write::writebacks           1635380                       # Write bandwidth from this memory (bytes/s)
system.physmem.bw_write::cpu0.data               6524                       # Write bandwidth from this memory (bytes/s)
system.physmem.bw_write::cpu1.data            1156014                       # Write bandwidth from this memory (bytes/s)
system.physmem.bw_write::total                2797918                       # Write bandwidth from this memory (bytes/s)
system.physmem.bw_total::writebacks           1635380                       # Total bandwidth to/from this memory (bytes/s)
system.physmem.bw_total::realview.clcd       46480446                       # Total bandwidth to/from this memory (bytes/s)
system.physmem.bw_total::cpu0.dtb.walker          319                       # Total bandwidth to/from this memory (bytes/s)
system.physmem.bw_total::cpu0.itb.walker           49                       # Total bandwidth to/from this memory (bytes/s)
system.physmem.bw_total::cpu0.inst             151598                       # Total bandwidth to/from this memory (bytes/s)
system.physmem.bw_total::cpu0.data            1676143                       # Total bandwidth to/from this memory (bytes/s)
system.physmem.bw_total::cpu1.dtb.walker          418                       # Total bandwidth to/from this memory (bytes/s)
system.physmem.bw_total::cpu1.inst             163830                       # Total bandwidth to/from this memory (bytes/s)
system.physmem.bw_total::cpu1.data            3172376                       # Total bandwidth to/from this memory (bytes/s)
system.physmem.bw_total::total               53280558                       # Total bandwidth to/from this memory (bytes/s)
system.physmem.readReqs                      15301859                       # Number of read requests accepted
system.physmem.writeReqs                       823865                       # Number of write requests accepted
system.physmem.readBursts                    15301859                       # Number of DRAM read bursts, including those serviced by the write queue
system.physmem.writeBursts                     823865                       # Number of DRAM write bursts, including those merged in the write queue
system.physmem.bytesReadDRAM                976840512                       # Total number of bytes read from DRAM
system.physmem.bytesReadWrQ                   2478464                       # Total number of bytes read from write queue
system.physmem.bytesWritten                   7393984                       # Total number of bytes written to DRAM
system.physmem.bytesReadSys                 131538740                       # Total read bytes from the system interface side
system.physmem.bytesWrittenSys                7290320                       # Total written bytes from the system interface side
system.physmem.servicedByWrQ                    38726                       # Number of DRAM read bursts serviced by the write queue
system.physmem.mergedWrBursts                  708315                       # Number of DRAM write bursts merged with an existing one
system.physmem.neitherReadNorWriteReqs          14211                       # Number of requests that are neither read nor write
system.physmem.perBankRdBursts::0              956322                       # Per bank write bursts
system.physmem.perBankRdBursts::1              955904                       # Per bank write bursts
system.physmem.perBankRdBursts::2              952374                       # Per bank write bursts
system.physmem.perBankRdBursts::3              952254                       # Per bank write bursts
system.physmem.perBankRdBursts::4              956762                       # Per bank write bursts
system.physmem.perBankRdBursts::5              955994                       # Per bank write bursts
system.physmem.perBankRdBursts::6              951679                       # Per bank write bursts
system.physmem.perBankRdBursts::7              951390                       # Per bank write bursts
system.physmem.perBankRdBursts::8              956653                       # Per bank write bursts
system.physmem.perBankRdBursts::9              956558                       # Per bank write bursts
system.physmem.perBankRdBursts::10             951325                       # Per bank write bursts
system.physmem.perBankRdBursts::11             950816                       # Per bank write bursts
system.physmem.perBankRdBursts::12             956256                       # Per bank write bursts
system.physmem.perBankRdBursts::13             956091                       # Per bank write bursts
system.physmem.perBankRdBursts::14             951432                       # Per bank write bursts
system.physmem.perBankRdBursts::15             951323                       # Per bank write bursts
system.physmem.perBankWrBursts::0                7131                       # Per bank write bursts
system.physmem.perBankWrBursts::1                6969                       # Per bank write bursts
system.physmem.perBankWrBursts::2                7487                       # Per bank write bursts
system.physmem.perBankWrBursts::3                7380                       # Per bank write bursts
system.physmem.perBankWrBursts::4                7843                       # Per bank write bursts
system.physmem.perBankWrBursts::5                7402                       # Per bank write bursts
system.physmem.perBankWrBursts::6                7084                       # Per bank write bursts
system.physmem.perBankWrBursts::7                7084                       # Per bank write bursts
system.physmem.perBankWrBursts::8                7461                       # Per bank write bursts
system.physmem.perBankWrBursts::9                7519                       # Per bank write bursts
system.physmem.perBankWrBursts::10               6987                       # Per bank write bursts
system.physmem.perBankWrBursts::11               6657                       # Per bank write bursts
system.physmem.perBankWrBursts::12               7185                       # Per bank write bursts
system.physmem.perBankWrBursts::13               7089                       # Per bank write bursts
system.physmem.perBankWrBursts::14               7212                       # Per bank write bursts
system.physmem.perBankWrBursts::15               7041                       # Per bank write bursts
system.physmem.numRdRetry                           0                       # Number of times read queue was full causing retry
system.physmem.numWrRetry                           0                       # Number of times write queue was full causing retry
system.physmem.totGap                    2605622062000                       # Total gap between requests
system.physmem.readPktSize::0                       0                       # Read request sizes (log2)
system.physmem.readPktSize::1                       0                       # Read request sizes (log2)
system.physmem.readPktSize::2                     109                       # Read request sizes (log2)
system.physmem.readPktSize::3                15138816                       # Read request sizes (log2)
system.physmem.readPktSize::4                       0                       # Read request sizes (log2)
system.physmem.readPktSize::5                       0                       # Read request sizes (log2)
system.physmem.readPktSize::6                  162934                       # Read request sizes (log2)
system.physmem.writePktSize::0                      0                       # Write request sizes (log2)
system.physmem.writePktSize::1                      0                       # Write request sizes (log2)
system.physmem.writePktSize::2                 757284                       # Write request sizes (log2)
system.physmem.writePktSize::3                      0                       # Write request sizes (log2)
system.physmem.writePktSize::4                      0                       # Write request sizes (log2)
system.physmem.writePktSize::5                      0                       # Write request sizes (log2)
system.physmem.writePktSize::6                  66581                       # Write request sizes (log2)
system.physmem.rdQLenPdf::0                   1184108                       # What read queue length does an incoming req see
system.physmem.rdQLenPdf::1                   1129171                       # What read queue length does an incoming req see
system.physmem.rdQLenPdf::2                   1082709                       # What read queue length does an incoming req see
system.physmem.rdQLenPdf::3                   3674312                       # What read queue length does an incoming req see
system.physmem.rdQLenPdf::4                   2649053                       # What read queue length does an incoming req see
system.physmem.rdQLenPdf::5                   2636381                       # What read queue length does an incoming req see
system.physmem.rdQLenPdf::6                   2643445                       # What read queue length does an incoming req see
system.physmem.rdQLenPdf::7                     56452                       # What read queue length does an incoming req see
system.physmem.rdQLenPdf::8                     60541                       # What read queue length does an incoming req see
system.physmem.rdQLenPdf::9                     21670                       # What read queue length does an incoming req see
system.physmem.rdQLenPdf::10                    21240                       # What read queue length does an incoming req see
system.physmem.rdQLenPdf::11                    21122                       # What read queue length does an incoming req see
system.physmem.rdQLenPdf::12                    20880                       # What read queue length does an incoming req see
system.physmem.rdQLenPdf::13                    20711                       # What read queue length does an incoming req see
system.physmem.rdQLenPdf::14                    20560                       # What read queue length does an incoming req see
system.physmem.rdQLenPdf::15                    20478                       # What read queue length does an incoming req see
system.physmem.rdQLenPdf::16                      196                       # What read queue length does an incoming req see
system.physmem.rdQLenPdf::17                       93                       # What read queue length does an incoming req see
system.physmem.rdQLenPdf::18                        5                       # What read queue length does an incoming req see
system.physmem.rdQLenPdf::19                        5                       # What read queue length does an incoming req see
system.physmem.rdQLenPdf::20                        1                       # What read queue length does an incoming req see
system.physmem.rdQLenPdf::21                        0                       # What read queue length does an incoming req see
system.physmem.rdQLenPdf::22                        0                       # What read queue length does an incoming req see
system.physmem.rdQLenPdf::23                        0                       # What read queue length does an incoming req see
system.physmem.rdQLenPdf::24                        0                       # What read queue length does an incoming req see
system.physmem.rdQLenPdf::25                        0                       # What read queue length does an incoming req see
system.physmem.rdQLenPdf::26                        0                       # What read queue length does an incoming req see
system.physmem.rdQLenPdf::27                        0                       # What read queue length does an incoming req see
system.physmem.rdQLenPdf::28                        0                       # What read queue length does an incoming req see
system.physmem.rdQLenPdf::29                        0                       # What read queue length does an incoming req see
system.physmem.rdQLenPdf::30                        0                       # What read queue length does an incoming req see
system.physmem.rdQLenPdf::31                        0                       # What read queue length does an incoming req see
system.physmem.wrQLenPdf::0                      5109                       # What write queue length does an incoming req see
system.physmem.wrQLenPdf::1                      5790                       # What write queue length does an incoming req see
system.physmem.wrQLenPdf::2                      5234                       # What write queue length does an incoming req see
system.physmem.wrQLenPdf::3                      5460                       # What write queue length does an incoming req see
system.physmem.wrQLenPdf::4                      5588                       # What write queue length does an incoming req see
system.physmem.wrQLenPdf::5                      5210                       # What write queue length does an incoming req see
system.physmem.wrQLenPdf::6                      5203                       # What write queue length does an incoming req see
system.physmem.wrQLenPdf::7                      5223                       # What write queue length does an incoming req see
system.physmem.wrQLenPdf::8                      5160                       # What write queue length does an incoming req see
system.physmem.wrQLenPdf::9                      5157                       # What write queue length does an incoming req see
system.physmem.wrQLenPdf::10                     5138                       # What write queue length does an incoming req see
system.physmem.wrQLenPdf::11                     5137                       # What write queue length does an incoming req see
system.physmem.wrQLenPdf::12                     5130                       # What write queue length does an incoming req see
system.physmem.wrQLenPdf::13                     5134                       # What write queue length does an incoming req see
system.physmem.wrQLenPdf::14                     5143                       # What write queue length does an incoming req see
system.physmem.wrQLenPdf::15                     5144                       # What write queue length does an incoming req see
system.physmem.wrQLenPdf::16                     5140                       # What write queue length does an incoming req see
system.physmem.wrQLenPdf::17                     5173                       # What write queue length does an incoming req see
system.physmem.wrQLenPdf::18                     5188                       # What write queue length does an incoming req see
system.physmem.wrQLenPdf::19                     5156                       # What write queue length does an incoming req see
system.physmem.wrQLenPdf::20                     5162                       # What write queue length does an incoming req see
system.physmem.wrQLenPdf::21                     5520                       # What write queue length does an incoming req see
system.physmem.wrQLenPdf::22                      156                       # What write queue length does an incoming req see
system.physmem.wrQLenPdf::23                       71                       # What write queue length does an incoming req see
system.physmem.wrQLenPdf::24                       21                       # What write queue length does an incoming req see
system.physmem.wrQLenPdf::25                        3                       # What write queue length does an incoming req see
system.physmem.wrQLenPdf::26                        0                       # What write queue length does an incoming req see
system.physmem.wrQLenPdf::27                        0                       # What write queue length does an incoming req see
system.physmem.wrQLenPdf::28                        0                       # What write queue length does an incoming req see
system.physmem.wrQLenPdf::29                        0                       # What write queue length does an incoming req see
system.physmem.wrQLenPdf::30                        0                       # What write queue length does an incoming req see
system.physmem.wrQLenPdf::31                        0                       # What write queue length does an incoming req see
system.physmem.bytesPerActivate::samples        91489                       # Bytes accessed per row activation
system.physmem.bytesPerActivate::mean    10757.948868                       # Bytes accessed per row activation
system.physmem.bytesPerActivate::gmean     916.821036                       # Bytes accessed per row activation
system.physmem.bytesPerActivate::stdev   16539.903542                       # Bytes accessed per row activation
system.physmem.bytesPerActivate::64-71          25786     28.18%     28.18% # Bytes accessed per row activation
system.physmem.bytesPerActivate::128-135        14910     16.30%     44.48% # Bytes accessed per row activation
system.physmem.bytesPerActivate::192-199         3164      3.46%     47.94% # Bytes accessed per row activation
system.physmem.bytesPerActivate::256-263         2339      2.56%     50.50% # Bytes accessed per row activation
system.physmem.bytesPerActivate::320-327         1506      1.65%     52.14% # Bytes accessed per row activation
system.physmem.bytesPerActivate::384-391         1246      1.36%     53.50% # Bytes accessed per row activation
system.physmem.bytesPerActivate::448-455         1021      1.12%     54.62% # Bytes accessed per row activation
system.physmem.bytesPerActivate::512-519         1185      1.30%     55.92% # Bytes accessed per row activation
system.physmem.bytesPerActivate::576-583          667      0.73%     56.65% # Bytes accessed per row activation
system.physmem.bytesPerActivate::640-647          658      0.72%     57.36% # Bytes accessed per row activation
system.physmem.bytesPerActivate::704-711          602      0.66%     58.02% # Bytes accessed per row activation
system.physmem.bytesPerActivate::768-775          572      0.63%     58.65% # Bytes accessed per row activation
system.physmem.bytesPerActivate::832-839          315      0.34%     58.99% # Bytes accessed per row activation
system.physmem.bytesPerActivate::896-903          283      0.31%     59.30% # Bytes accessed per row activation
system.physmem.bytesPerActivate::960-967          170      0.19%     59.49% # Bytes accessed per row activation
system.physmem.bytesPerActivate::1024-1031          580      0.63%     60.12% # Bytes accessed per row activation
system.physmem.bytesPerActivate::1088-1095          115      0.13%     60.25% # Bytes accessed per row activation
system.physmem.bytesPerActivate::1152-1159          145      0.16%     60.41% # Bytes accessed per row activation
system.physmem.bytesPerActivate::1216-1223           84      0.09%     60.50% # Bytes accessed per row activation
system.physmem.bytesPerActivate::1280-1287          210      0.23%     60.73% # Bytes accessed per row activation
system.physmem.bytesPerActivate::1344-1351           59      0.06%     60.79% # Bytes accessed per row activation
system.physmem.bytesPerActivate::1408-1415          551      0.60%     61.39% # Bytes accessed per row activation
system.physmem.bytesPerActivate::1472-1479           52      0.06%     61.45% # Bytes accessed per row activation
system.physmem.bytesPerActivate::1536-1543          273      0.30%     61.75% # Bytes accessed per row activation
system.physmem.bytesPerActivate::1600-1607           29      0.03%     61.78% # Bytes accessed per row activation
system.physmem.bytesPerActivate::1664-1671          104      0.11%     61.89% # Bytes accessed per row activation
system.physmem.bytesPerActivate::1728-1735           17      0.02%     61.91% # Bytes accessed per row activation
system.physmem.bytesPerActivate::1792-1799          169      0.18%     62.10% # Bytes accessed per row activation
system.physmem.bytesPerActivate::1856-1863           21      0.02%     62.12% # Bytes accessed per row activation
system.physmem.bytesPerActivate::1920-1927           56      0.06%     62.18% # Bytes accessed per row activation
system.physmem.bytesPerActivate::1984-1991           21      0.02%     62.20% # Bytes accessed per row activation
system.physmem.bytesPerActivate::2048-2055          399      0.44%     62.64% # Bytes accessed per row activation
system.physmem.bytesPerActivate::2112-2119            9      0.01%     62.65% # Bytes accessed per row activation
system.physmem.bytesPerActivate::2176-2183           43      0.05%     62.70% # Bytes accessed per row activation
system.physmem.bytesPerActivate::2240-2247           10      0.01%     62.71% # Bytes accessed per row activation
system.physmem.bytesPerActivate::2304-2311           57      0.06%     62.77% # Bytes accessed per row activation
system.physmem.bytesPerActivate::2368-2375            5      0.01%     62.78% # Bytes accessed per row activation
system.physmem.bytesPerActivate::2432-2439           24      0.03%     62.80% # Bytes accessed per row activation
system.physmem.bytesPerActivate::2496-2503           13      0.01%     62.82% # Bytes accessed per row activation
system.physmem.bytesPerActivate::2560-2567          166      0.18%     63.00% # Bytes accessed per row activation
system.physmem.bytesPerActivate::2624-2631            7      0.01%     63.01% # Bytes accessed per row activation
system.physmem.bytesPerActivate::2688-2695           16      0.02%     63.02% # Bytes accessed per row activation
system.physmem.bytesPerActivate::2752-2759            4      0.00%     63.03% # Bytes accessed per row activation
system.physmem.bytesPerActivate::2816-2823           30      0.03%     63.06% # Bytes accessed per row activation
system.physmem.bytesPerActivate::2880-2887            6      0.01%     63.07% # Bytes accessed per row activation
system.physmem.bytesPerActivate::2944-2951           23      0.03%     63.09% # Bytes accessed per row activation
system.physmem.bytesPerActivate::3008-3015            4      0.00%     63.10% # Bytes accessed per row activation
system.physmem.bytesPerActivate::3072-3079          317      0.35%     63.44% # Bytes accessed per row activation
system.physmem.bytesPerActivate::3136-3143            3      0.00%     63.45% # Bytes accessed per row activation
system.physmem.bytesPerActivate::3200-3207           20      0.02%     63.47% # Bytes accessed per row activation
system.physmem.bytesPerActivate::3264-3271           11      0.01%     63.48% # Bytes accessed per row activation
system.physmem.bytesPerActivate::3328-3335          167      0.18%     63.66% # Bytes accessed per row activation
system.physmem.bytesPerActivate::3392-3399           13      0.01%     63.68% # Bytes accessed per row activation
system.physmem.bytesPerActivate::3456-3463           17      0.02%     63.70% # Bytes accessed per row activation
system.physmem.bytesPerActivate::3520-3527            7      0.01%     63.70% # Bytes accessed per row activation
system.physmem.bytesPerActivate::3584-3591          159      0.17%     63.88% # Bytes accessed per row activation
system.physmem.bytesPerActivate::3648-3655            8      0.01%     63.89% # Bytes accessed per row activation
system.physmem.bytesPerActivate::3712-3719           17      0.02%     63.90% # Bytes accessed per row activation
system.physmem.bytesPerActivate::3776-3783           11      0.01%     63.92% # Bytes accessed per row activation
system.physmem.bytesPerActivate::3840-3847          119      0.13%     64.05% # Bytes accessed per row activation
system.physmem.bytesPerActivate::3904-3911            7      0.01%     64.05% # Bytes accessed per row activation
system.physmem.bytesPerActivate::3968-3975           21      0.02%     64.08% # Bytes accessed per row activation
system.physmem.bytesPerActivate::4032-4039            9      0.01%     64.09% # Bytes accessed per row activation
system.physmem.bytesPerActivate::4096-4103          498      0.54%     64.63% # Bytes accessed per row activation
system.physmem.bytesPerActivate::4160-4167            8      0.01%     64.64% # Bytes accessed per row activation
system.physmem.bytesPerActivate::4224-4231           12      0.01%     64.65% # Bytes accessed per row activation
system.physmem.bytesPerActivate::4288-4295            9      0.01%     64.66% # Bytes accessed per row activation
system.physmem.bytesPerActivate::4352-4359           21      0.02%     64.69% # Bytes accessed per row activation
system.physmem.bytesPerActivate::4416-4423           17      0.02%     64.70% # Bytes accessed per row activation
system.physmem.bytesPerActivate::4480-4487           15      0.02%     64.72% # Bytes accessed per row activation
system.physmem.bytesPerActivate::4544-4551           10      0.01%     64.73% # Bytes accessed per row activation
system.physmem.bytesPerActivate::4608-4615           32      0.03%     64.77% # Bytes accessed per row activation
system.physmem.bytesPerActivate::4672-4679            2      0.00%     64.77% # Bytes accessed per row activation
system.physmem.bytesPerActivate::4736-4743           10      0.01%     64.78% # Bytes accessed per row activation
system.physmem.bytesPerActivate::4800-4807            9      0.01%     64.79% # Bytes accessed per row activation
system.physmem.bytesPerActivate::4864-4871          144      0.16%     64.95% # Bytes accessed per row activation
system.physmem.bytesPerActivate::4928-4935           10      0.01%     64.96% # Bytes accessed per row activation
system.physmem.bytesPerActivate::4992-4999           10      0.01%     64.97% # Bytes accessed per row activation
system.physmem.bytesPerActivate::5056-5063            5      0.01%     64.97% # Bytes accessed per row activation
system.physmem.bytesPerActivate::5120-5127          298      0.33%     65.30% # Bytes accessed per row activation
system.physmem.bytesPerActivate::5184-5191            8      0.01%     65.31% # Bytes accessed per row activation
system.physmem.bytesPerActivate::5248-5255           12      0.01%     65.32% # Bytes accessed per row activation
system.physmem.bytesPerActivate::5312-5319            6      0.01%     65.33% # Bytes accessed per row activation
system.physmem.bytesPerActivate::5376-5383           14      0.02%     65.34% # Bytes accessed per row activation
system.physmem.bytesPerActivate::5440-5447            7      0.01%     65.35% # Bytes accessed per row activation
system.physmem.bytesPerActivate::5504-5511            8      0.01%     65.36% # Bytes accessed per row activation
system.physmem.bytesPerActivate::5568-5575            5      0.01%     65.37% # Bytes accessed per row activation
system.physmem.bytesPerActivate::5632-5639           74      0.08%     65.45% # Bytes accessed per row activation
system.physmem.bytesPerActivate::5696-5703            2      0.00%     65.45% # Bytes accessed per row activation
system.physmem.bytesPerActivate::5760-5767           15      0.02%     65.46% # Bytes accessed per row activation
system.physmem.bytesPerActivate::5824-5831            4      0.00%     65.47% # Bytes accessed per row activation
system.physmem.bytesPerActivate::5888-5895          253      0.28%     65.75% # Bytes accessed per row activation
system.physmem.bytesPerActivate::5952-5959            4      0.00%     65.75% # Bytes accessed per row activation
system.physmem.bytesPerActivate::6016-6023           13      0.01%     65.76% # Bytes accessed per row activation
system.physmem.bytesPerActivate::6080-6087           13      0.01%     65.78% # Bytes accessed per row activation
system.physmem.bytesPerActivate::6144-6151          396      0.43%     66.21% # Bytes accessed per row activation
system.physmem.bytesPerActivate::6208-6215            4      0.00%     66.22% # Bytes accessed per row activation
system.physmem.bytesPerActivate::6272-6279           10      0.01%     66.23% # Bytes accessed per row activation
system.physmem.bytesPerActivate::6336-6343            4      0.00%     66.23% # Bytes accessed per row activation
system.physmem.bytesPerActivate::6400-6407           85      0.09%     66.32% # Bytes accessed per row activation
system.physmem.bytesPerActivate::6464-6471            5      0.01%     66.33% # Bytes accessed per row activation
system.physmem.bytesPerActivate::6528-6535            8      0.01%     66.34% # Bytes accessed per row activation
system.physmem.bytesPerActivate::6592-6599            5      0.01%     66.34% # Bytes accessed per row activation
system.physmem.bytesPerActivate::6656-6663          103      0.11%     66.46% # Bytes accessed per row activation
system.physmem.bytesPerActivate::6720-6727            8      0.01%     66.46% # Bytes accessed per row activation
system.physmem.bytesPerActivate::6784-6791           22      0.02%     66.49% # Bytes accessed per row activation
system.physmem.bytesPerActivate::6848-6855            2      0.00%     66.49% # Bytes accessed per row activation
system.physmem.bytesPerActivate::6912-6919           29      0.03%     66.52% # Bytes accessed per row activation
system.physmem.bytesPerActivate::6976-6983            4      0.00%     66.53% # Bytes accessed per row activation
system.physmem.bytesPerActivate::7040-7047            7      0.01%     66.53% # Bytes accessed per row activation
system.physmem.bytesPerActivate::7104-7111            3      0.00%     66.54% # Bytes accessed per row activation
system.physmem.bytesPerActivate::7168-7175          296      0.32%     66.86% # Bytes accessed per row activation
system.physmem.bytesPerActivate::7232-7239            3      0.00%     66.86% # Bytes accessed per row activation
system.physmem.bytesPerActivate::7296-7303            7      0.01%     66.87% # Bytes accessed per row activation
system.physmem.bytesPerActivate::7360-7367           10      0.01%     66.88% # Bytes accessed per row activation
system.physmem.bytesPerActivate::7424-7431          167      0.18%     67.07% # Bytes accessed per row activation
system.physmem.bytesPerActivate::7488-7495            5      0.01%     67.07% # Bytes accessed per row activation
system.physmem.bytesPerActivate::7552-7559           11      0.01%     67.08% # Bytes accessed per row activation
system.physmem.bytesPerActivate::7616-7623            5      0.01%     67.09% # Bytes accessed per row activation
system.physmem.bytesPerActivate::7680-7687           20      0.02%     67.11% # Bytes accessed per row activation
system.physmem.bytesPerActivate::7744-7751            1      0.00%     67.11% # Bytes accessed per row activation
system.physmem.bytesPerActivate::7808-7815            5      0.01%     67.12% # Bytes accessed per row activation
system.physmem.bytesPerActivate::7936-7943           73      0.08%     67.20% # Bytes accessed per row activation
system.physmem.bytesPerActivate::8000-8007            3      0.00%     67.20% # Bytes accessed per row activation
system.physmem.bytesPerActivate::8064-8071            9      0.01%     67.21% # Bytes accessed per row activation
system.physmem.bytesPerActivate::8192-8199          634      0.69%     67.90% # Bytes accessed per row activation
system.physmem.bytesPerActivate::8320-8327            2      0.00%     67.91% # Bytes accessed per row activation
system.physmem.bytesPerActivate::8448-8455           75      0.08%     67.99% # Bytes accessed per row activation
system.physmem.bytesPerActivate::8576-8583            2      0.00%     67.99% # Bytes accessed per row activation
system.physmem.bytesPerActivate::8704-8711           13      0.01%     68.00% # Bytes accessed per row activation
system.physmem.bytesPerActivate::8832-8839            1      0.00%     68.00% # Bytes accessed per row activation
system.physmem.bytesPerActivate::8960-8967          157      0.17%     68.18% # Bytes accessed per row activation
system.physmem.bytesPerActivate::9024-9031            1      0.00%     68.18% # Bytes accessed per row activation
system.physmem.bytesPerActivate::9088-9095            2      0.00%     68.18% # Bytes accessed per row activation
system.physmem.bytesPerActivate::9152-9159            1      0.00%     68.18% # Bytes accessed per row activation
system.physmem.bytesPerActivate::9216-9223          285      0.31%     68.49% # Bytes accessed per row activation
system.physmem.bytesPerActivate::9472-9479           15      0.02%     68.51% # Bytes accessed per row activation
system.physmem.bytesPerActivate::9536-9543            1      0.00%     68.51% # Bytes accessed per row activation
system.physmem.bytesPerActivate::9600-9607            1      0.00%     68.51% # Bytes accessed per row activation
system.physmem.bytesPerActivate::9728-9735           93      0.10%     68.61% # Bytes accessed per row activation
system.physmem.bytesPerActivate::9792-9799            1      0.00%     68.61% # Bytes accessed per row activation
system.physmem.bytesPerActivate::9856-9863            1      0.00%     68.61% # Bytes accessed per row activation
system.physmem.bytesPerActivate::9984-9991           77      0.08%     68.70% # Bytes accessed per row activation
system.physmem.bytesPerActivate::10048-10055            1      0.00%     68.70% # Bytes accessed per row activation
system.physmem.bytesPerActivate::10112-10119            4      0.00%     68.70% # Bytes accessed per row activation
system.physmem.bytesPerActivate::10240-10247          396      0.43%     69.14% # Bytes accessed per row activation
system.physmem.bytesPerActivate::10368-10375            2      0.00%     69.14% # Bytes accessed per row activation
system.physmem.bytesPerActivate::10432-10439            1      0.00%     69.14% # Bytes accessed per row activation
system.physmem.bytesPerActivate::10496-10503          200      0.22%     69.36% # Bytes accessed per row activation
system.physmem.bytesPerActivate::10688-10695            1      0.00%     69.36% # Bytes accessed per row activation
system.physmem.bytesPerActivate::10752-10759           71      0.08%     69.44% # Bytes accessed per row activation
system.physmem.bytesPerActivate::10816-10823            1      0.00%     69.44% # Bytes accessed per row activation
system.physmem.bytesPerActivate::10880-10887            1      0.00%     69.44% # Bytes accessed per row activation
system.physmem.bytesPerActivate::10944-10951            1      0.00%     69.44% # Bytes accessed per row activation
system.physmem.bytesPerActivate::11008-11015           10      0.01%     69.45% # Bytes accessed per row activation
system.physmem.bytesPerActivate::11136-11143            1      0.00%     69.45% # Bytes accessed per row activation
system.physmem.bytesPerActivate::11264-11271          289      0.32%     69.77% # Bytes accessed per row activation
system.physmem.bytesPerActivate::11328-11335            1      0.00%     69.77% # Bytes accessed per row activation
system.physmem.bytesPerActivate::11392-11399            1      0.00%     69.77% # Bytes accessed per row activation
system.physmem.bytesPerActivate::11520-11527          139      0.15%     69.92% # Bytes accessed per row activation
system.physmem.bytesPerActivate::11584-11591            1      0.00%     69.92% # Bytes accessed per row activation
system.physmem.bytesPerActivate::11776-11783           14      0.02%     69.94% # Bytes accessed per row activation
system.physmem.bytesPerActivate::12032-12039           10      0.01%     69.95% # Bytes accessed per row activation
system.physmem.bytesPerActivate::12160-12167            5      0.01%     69.96% # Bytes accessed per row activation
system.physmem.bytesPerActivate::12224-12231            2      0.00%     69.96% # Bytes accessed per row activation
system.physmem.bytesPerActivate::12288-12295          463      0.51%     70.46% # Bytes accessed per row activation
system.physmem.bytesPerActivate::12352-12359            1      0.00%     70.47% # Bytes accessed per row activation
system.physmem.bytesPerActivate::12480-12487            1      0.00%     70.47% # Bytes accessed per row activation
system.physmem.bytesPerActivate::12544-12551           93      0.10%     70.57% # Bytes accessed per row activation
system.physmem.bytesPerActivate::12608-12615            1      0.00%     70.57% # Bytes accessed per row activation
system.physmem.bytesPerActivate::12672-12679            1      0.00%     70.57% # Bytes accessed per row activation
system.physmem.bytesPerActivate::12800-12807          146      0.16%     70.73% # Bytes accessed per row activation
system.physmem.bytesPerActivate::12864-12871            1      0.00%     70.73% # Bytes accessed per row activation
system.physmem.bytesPerActivate::12928-12935            1      0.00%     70.73% # Bytes accessed per row activation
system.physmem.bytesPerActivate::12992-12999            1      0.00%     70.73% # Bytes accessed per row activation
system.physmem.bytesPerActivate::13056-13063          146      0.16%     70.89% # Bytes accessed per row activation
system.physmem.bytesPerActivate::13120-13127            1      0.00%     70.89% # Bytes accessed per row activation
system.physmem.bytesPerActivate::13184-13191            1      0.00%     70.89% # Bytes accessed per row activation
system.physmem.bytesPerActivate::13312-13319          294      0.32%     71.22% # Bytes accessed per row activation
system.physmem.bytesPerActivate::13568-13575           17      0.02%     71.23% # Bytes accessed per row activation
system.physmem.bytesPerActivate::13632-13639            1      0.00%     71.24% # Bytes accessed per row activation
system.physmem.bytesPerActivate::13696-13703            1      0.00%     71.24% # Bytes accessed per row activation
system.physmem.bytesPerActivate::13824-13831          141      0.15%     71.39% # Bytes accessed per row activation
system.physmem.bytesPerActivate::13952-13959            1      0.00%     71.39% # Bytes accessed per row activation
system.physmem.bytesPerActivate::14080-14087           14      0.02%     71.41% # Bytes accessed per row activation
system.physmem.bytesPerActivate::14208-14215            3      0.00%     71.41% # Bytes accessed per row activation
system.physmem.bytesPerActivate::14336-14343          345      0.38%     71.79% # Bytes accessed per row activation
system.physmem.bytesPerActivate::14400-14407            1      0.00%     71.79% # Bytes accessed per row activation
system.physmem.bytesPerActivate::14464-14471            2      0.00%     71.79% # Bytes accessed per row activation
system.physmem.bytesPerActivate::14528-14535            1      0.00%     71.79% # Bytes accessed per row activation
system.physmem.bytesPerActivate::14592-14599           78      0.09%     71.88% # Bytes accessed per row activation
system.physmem.bytesPerActivate::14656-14663            1      0.00%     71.88% # Bytes accessed per row activation
system.physmem.bytesPerActivate::14720-14727            2      0.00%     71.88% # Bytes accessed per row activation
system.physmem.bytesPerActivate::14848-14855           78      0.09%     71.97% # Bytes accessed per row activation
system.physmem.bytesPerActivate::14976-14983            3      0.00%     71.97% # Bytes accessed per row activation
system.physmem.bytesPerActivate::15104-15111           81      0.09%     72.06% # Bytes accessed per row activation
system.physmem.bytesPerActivate::15168-15175            1      0.00%     72.06% # Bytes accessed per row activation
system.physmem.bytesPerActivate::15232-15239            1      0.00%     72.06% # Bytes accessed per row activation
system.physmem.bytesPerActivate::15296-15303            2      0.00%     72.06% # Bytes accessed per row activation
system.physmem.bytesPerActivate::15360-15367          392      0.43%     72.49% # Bytes accessed per row activation
system.physmem.bytesPerActivate::15616-15623           92      0.10%     72.59% # Bytes accessed per row activation
system.physmem.bytesPerActivate::15808-15815            1      0.00%     72.59% # Bytes accessed per row activation
system.physmem.bytesPerActivate::15872-15879           13      0.01%     72.61% # Bytes accessed per row activation
system.physmem.bytesPerActivate::15936-15943            1      0.00%     72.61% # Bytes accessed per row activation
system.physmem.bytesPerActivate::16000-16007            1      0.00%     72.61% # Bytes accessed per row activation
system.physmem.bytesPerActivate::16128-16135           74      0.08%     72.69% # Bytes accessed per row activation
system.physmem.bytesPerActivate::16192-16199            1      0.00%     72.69% # Bytes accessed per row activation
system.physmem.bytesPerActivate::16256-16263           10      0.01%     72.70% # Bytes accessed per row activation
system.physmem.bytesPerActivate::16384-16391          676      0.74%     73.44% # Bytes accessed per row activation
system.physmem.bytesPerActivate::16640-16647           76      0.08%     73.52% # Bytes accessed per row activation
system.physmem.bytesPerActivate::16896-16903           13      0.01%     73.54% # Bytes accessed per row activation
system.physmem.bytesPerActivate::16960-16967            2      0.00%     73.54% # Bytes accessed per row activation
system.physmem.bytesPerActivate::17152-17159           98      0.11%     73.65% # Bytes accessed per row activation
system.physmem.bytesPerActivate::17216-17223            1      0.00%     73.65% # Bytes accessed per row activation
system.physmem.bytesPerActivate::17280-17287            2      0.00%     73.65% # Bytes accessed per row activation
system.physmem.bytesPerActivate::17344-17351            1      0.00%     73.65% # Bytes accessed per row activation
system.physmem.bytesPerActivate::17408-17415          394      0.43%     74.08% # Bytes accessed per row activation
system.physmem.bytesPerActivate::17472-17479            4      0.00%     74.09% # Bytes accessed per row activation
system.physmem.bytesPerActivate::17536-17543            1      0.00%     74.09% # Bytes accessed per row activation
system.physmem.bytesPerActivate::17600-17607            2      0.00%     74.09% # Bytes accessed per row activation
system.physmem.bytesPerActivate::17664-17671           80      0.09%     74.18% # Bytes accessed per row activation
system.physmem.bytesPerActivate::17728-17735            1      0.00%     74.18% # Bytes accessed per row activation
system.physmem.bytesPerActivate::17792-17799            1      0.00%     74.18% # Bytes accessed per row activation
system.physmem.bytesPerActivate::17856-17863            1      0.00%     74.18% # Bytes accessed per row activation
system.physmem.bytesPerActivate::17920-17927           77      0.08%     74.26% # Bytes accessed per row activation
system.physmem.bytesPerActivate::18112-18119            1      0.00%     74.27% # Bytes accessed per row activation
system.physmem.bytesPerActivate::18176-18183           83      0.09%     74.36% # Bytes accessed per row activation
system.physmem.bytesPerActivate::18304-18311            3      0.00%     74.36% # Bytes accessed per row activation
system.physmem.bytesPerActivate::18432-18439          341      0.37%     74.73% # Bytes accessed per row activation
system.physmem.bytesPerActivate::18688-18695           14      0.02%     74.75% # Bytes accessed per row activation
system.physmem.bytesPerActivate::18816-18823            2      0.00%     74.75% # Bytes accessed per row activation
system.physmem.bytesPerActivate::18944-18951          141      0.15%     74.90% # Bytes accessed per row activation
system.physmem.bytesPerActivate::19072-19079            1      0.00%     74.91% # Bytes accessed per row activation
system.physmem.bytesPerActivate::19200-19207           23      0.03%     74.93% # Bytes accessed per row activation
system.physmem.bytesPerActivate::19328-19335            2      0.00%     74.93% # Bytes accessed per row activation
system.physmem.bytesPerActivate::19456-19463          287      0.31%     75.25% # Bytes accessed per row activation
system.physmem.bytesPerActivate::19520-19527            3      0.00%     75.25% # Bytes accessed per row activation
system.physmem.bytesPerActivate::19584-19591            3      0.00%     75.25% # Bytes accessed per row activation
system.physmem.bytesPerActivate::19648-19655            1      0.00%     75.25% # Bytes accessed per row activation
system.physmem.bytesPerActivate::19712-19719          144      0.16%     75.41% # Bytes accessed per row activation
system.physmem.bytesPerActivate::19776-19783            2      0.00%     75.41% # Bytes accessed per row activation
system.physmem.bytesPerActivate::19968-19975          144      0.16%     75.57% # Bytes accessed per row activation
system.physmem.bytesPerActivate::20160-20167            1      0.00%     75.57% # Bytes accessed per row activation
system.physmem.bytesPerActivate::20224-20231           97      0.11%     75.68% # Bytes accessed per row activation
system.physmem.bytesPerActivate::20288-20295            1      0.00%     75.68% # Bytes accessed per row activation
system.physmem.bytesPerActivate::20352-20359            3      0.00%     75.68% # Bytes accessed per row activation
system.physmem.bytesPerActivate::20480-20487          470      0.51%     76.20% # Bytes accessed per row activation
system.physmem.bytesPerActivate::20544-20551            1      0.00%     76.20% # Bytes accessed per row activation
system.physmem.bytesPerActivate::20672-20679            1      0.00%     76.20% # Bytes accessed per row activation
system.physmem.bytesPerActivate::20736-20743           10      0.01%     76.21% # Bytes accessed per row activation
system.physmem.bytesPerActivate::20992-20999           16      0.02%     76.23% # Bytes accessed per row activation
system.physmem.bytesPerActivate::21056-21063            1      0.00%     76.23% # Bytes accessed per row activation
system.physmem.bytesPerActivate::21120-21127            1      0.00%     76.23% # Bytes accessed per row activation
system.physmem.bytesPerActivate::21248-21255          142      0.16%     76.38% # Bytes accessed per row activation
system.physmem.bytesPerActivate::21376-21383            4      0.00%     76.39% # Bytes accessed per row activation
system.physmem.bytesPerActivate::21440-21447            3      0.00%     76.39% # Bytes accessed per row activation
system.physmem.bytesPerActivate::21504-21511          283      0.31%     76.70% # Bytes accessed per row activation
system.physmem.bytesPerActivate::21760-21767            9      0.01%     76.71% # Bytes accessed per row activation
system.physmem.bytesPerActivate::21824-21831            1      0.00%     76.71% # Bytes accessed per row activation
system.physmem.bytesPerActivate::21888-21895            1      0.00%     76.71% # Bytes accessed per row activation
system.physmem.bytesPerActivate::22016-22023           72      0.08%     76.79% # Bytes accessed per row activation
system.physmem.bytesPerActivate::22144-22151            2      0.00%     76.79% # Bytes accessed per row activation
system.physmem.bytesPerActivate::22272-22279          194      0.21%     77.01% # Bytes accessed per row activation
system.physmem.bytesPerActivate::22400-22407            3      0.00%     77.01% # Bytes accessed per row activation
system.physmem.bytesPerActivate::22464-22471            1      0.00%     77.01% # Bytes accessed per row activation
system.physmem.bytesPerActivate::22528-22535          387      0.42%     77.43% # Bytes accessed per row activation
system.physmem.bytesPerActivate::22592-22599            2      0.00%     77.44% # Bytes accessed per row activation
system.physmem.bytesPerActivate::22656-22663            1      0.00%     77.44% # Bytes accessed per row activation
system.physmem.bytesPerActivate::22720-22727            2      0.00%     77.44% # Bytes accessed per row activation
system.physmem.bytesPerActivate::22784-22791           79      0.09%     77.53% # Bytes accessed per row activation
system.physmem.bytesPerActivate::22848-22855            1      0.00%     77.53% # Bytes accessed per row activation
system.physmem.bytesPerActivate::22976-22983            2      0.00%     77.53% # Bytes accessed per row activation
system.physmem.bytesPerActivate::23040-23047           89      0.10%     77.63% # Bytes accessed per row activation
system.physmem.bytesPerActivate::23104-23111            1      0.00%     77.63% # Bytes accessed per row activation
system.physmem.bytesPerActivate::23168-23175            2      0.00%     77.63% # Bytes accessed per row activation
system.physmem.bytesPerActivate::23296-23303           21      0.02%     77.65% # Bytes accessed per row activation
system.physmem.bytesPerActivate::23424-23431            1      0.00%     77.65% # Bytes accessed per row activation
system.physmem.bytesPerActivate::23552-23559          286      0.31%     77.97% # Bytes accessed per row activation
system.physmem.bytesPerActivate::23680-23687            2      0.00%     77.97% # Bytes accessed per row activation
system.physmem.bytesPerActivate::23808-23815          151      0.17%     78.13% # Bytes accessed per row activation
system.physmem.bytesPerActivate::24064-24071           13      0.01%     78.15% # Bytes accessed per row activation
system.physmem.bytesPerActivate::24256-24263            2      0.00%     78.15% # Bytes accessed per row activation
system.physmem.bytesPerActivate::24320-24327           73      0.08%     78.23% # Bytes accessed per row activation
system.physmem.bytesPerActivate::24384-24391            1      0.00%     78.23% # Bytes accessed per row activation
system.physmem.bytesPerActivate::24448-24455            6      0.01%     78.24% # Bytes accessed per row activation
system.physmem.bytesPerActivate::24576-24583          527      0.58%     78.81% # Bytes accessed per row activation
system.physmem.bytesPerActivate::24704-24711            2      0.00%     78.81% # Bytes accessed per row activation
system.physmem.bytesPerActivate::24768-24775            1      0.00%     78.82% # Bytes accessed per row activation
system.physmem.bytesPerActivate::24832-24839           73      0.08%     78.90% # Bytes accessed per row activation
system.physmem.bytesPerActivate::24896-24903            1      0.00%     78.90% # Bytes accessed per row activation
system.physmem.bytesPerActivate::25088-25095           14      0.02%     78.91% # Bytes accessed per row activation
system.physmem.bytesPerActivate::25152-25159            1      0.00%     78.91% # Bytes accessed per row activation
system.physmem.bytesPerActivate::25216-25223            1      0.00%     78.91% # Bytes accessed per row activation
system.physmem.bytesPerActivate::25280-25287            1      0.00%     78.92% # Bytes accessed per row activation
system.physmem.bytesPerActivate::25344-25351          156      0.17%     79.09% # Bytes accessed per row activation
system.physmem.bytesPerActivate::25408-25415            2      0.00%     79.09% # Bytes accessed per row activation
system.physmem.bytesPerActivate::25472-25479            3      0.00%     79.09% # Bytes accessed per row activation
system.physmem.bytesPerActivate::25600-25607          278      0.30%     79.40% # Bytes accessed per row activation
system.physmem.bytesPerActivate::25664-25671            2      0.00%     79.40% # Bytes accessed per row activation
system.physmem.bytesPerActivate::25856-25863           13      0.01%     79.41% # Bytes accessed per row activation
system.physmem.bytesPerActivate::25984-25991            3      0.00%     79.42% # Bytes accessed per row activation
system.physmem.bytesPerActivate::26048-26055            1      0.00%     79.42% # Bytes accessed per row activation
system.physmem.bytesPerActivate::26112-26119           89      0.10%     79.51% # Bytes accessed per row activation
system.physmem.bytesPerActivate::26176-26183            4      0.00%     79.52% # Bytes accessed per row activation
system.physmem.bytesPerActivate::26240-26247            1      0.00%     79.52% # Bytes accessed per row activation
system.physmem.bytesPerActivate::26368-26375           78      0.09%     79.60% # Bytes accessed per row activation
system.physmem.bytesPerActivate::26496-26503            4      0.00%     79.61% # Bytes accessed per row activation
system.physmem.bytesPerActivate::26624-26631          385      0.42%     80.03% # Bytes accessed per row activation
system.physmem.bytesPerActivate::26752-26759            1      0.00%     80.03% # Bytes accessed per row activation
system.physmem.bytesPerActivate::26816-26823            2      0.00%     80.03% # Bytes accessed per row activation
system.physmem.bytesPerActivate::26880-26887          196      0.21%     80.25% # Bytes accessed per row activation
system.physmem.bytesPerActivate::26944-26951            1      0.00%     80.25% # Bytes accessed per row activation
system.physmem.bytesPerActivate::27008-27015            1      0.00%     80.25% # Bytes accessed per row activation
system.physmem.bytesPerActivate::27072-27079            2      0.00%     80.25% # Bytes accessed per row activation
system.physmem.bytesPerActivate::27136-27143           71      0.08%     80.33% # Bytes accessed per row activation
system.physmem.bytesPerActivate::27200-27207            1      0.00%     80.33% # Bytes accessed per row activation
system.physmem.bytesPerActivate::27392-27399           10      0.01%     80.34% # Bytes accessed per row activation
system.physmem.bytesPerActivate::27456-27463            2      0.00%     80.34% # Bytes accessed per row activation
system.physmem.bytesPerActivate::27520-27527            2      0.00%     80.35% # Bytes accessed per row activation
system.physmem.bytesPerActivate::27648-27655          285      0.31%     80.66% # Bytes accessed per row activation
system.physmem.bytesPerActivate::27712-27719            1      0.00%     80.66% # Bytes accessed per row activation
system.physmem.bytesPerActivate::27776-27783            2      0.00%     80.66% # Bytes accessed per row activation
system.physmem.bytesPerActivate::27904-27911          137      0.15%     80.81% # Bytes accessed per row activation
system.physmem.bytesPerActivate::28096-28103            1      0.00%     80.81% # Bytes accessed per row activation
system.physmem.bytesPerActivate::28160-28167           20      0.02%     80.83% # Bytes accessed per row activation
system.physmem.bytesPerActivate::28224-28231            1      0.00%     80.83% # Bytes accessed per row activation
system.physmem.bytesPerActivate::28288-28295            1      0.00%     80.83% # Bytes accessed per row activation
system.physmem.bytesPerActivate::28352-28359            1      0.00%     80.84% # Bytes accessed per row activation
system.physmem.bytesPerActivate::28416-28423           15      0.02%     80.85% # Bytes accessed per row activation
system.physmem.bytesPerActivate::28544-28551            5      0.01%     80.86% # Bytes accessed per row activation
system.physmem.bytesPerActivate::28608-28615            1      0.00%     80.86% # Bytes accessed per row activation
system.physmem.bytesPerActivate::28672-28679          454      0.50%     81.36% # Bytes accessed per row activation
system.physmem.bytesPerActivate::28800-28807            1      0.00%     81.36% # Bytes accessed per row activation
system.physmem.bytesPerActivate::28864-28871            1      0.00%     81.36% # Bytes accessed per row activation
system.physmem.bytesPerActivate::28928-28935           95      0.10%     81.46% # Bytes accessed per row activation
system.physmem.bytesPerActivate::29056-29063            2      0.00%     81.46% # Bytes accessed per row activation
system.physmem.bytesPerActivate::29120-29127            2      0.00%     81.47% # Bytes accessed per row activation
system.physmem.bytesPerActivate::29184-29191          143      0.16%     81.62% # Bytes accessed per row activation
system.physmem.bytesPerActivate::29312-29319            3      0.00%     81.63% # Bytes accessed per row activation
system.physmem.bytesPerActivate::29376-29383            2      0.00%     81.63% # Bytes accessed per row activation
system.physmem.bytesPerActivate::29440-29447          147      0.16%     81.79% # Bytes accessed per row activation
system.physmem.bytesPerActivate::29568-29575            5      0.01%     81.79% # Bytes accessed per row activation
system.physmem.bytesPerActivate::29632-29639            1      0.00%     81.79% # Bytes accessed per row activation
system.physmem.bytesPerActivate::29696-29703          291      0.32%     82.11% # Bytes accessed per row activation
system.physmem.bytesPerActivate::29760-29767            1      0.00%     82.11% # Bytes accessed per row activation
system.physmem.bytesPerActivate::29824-29831            1      0.00%     82.11% # Bytes accessed per row activation
system.physmem.bytesPerActivate::29952-29959           18      0.02%     82.13% # Bytes accessed per row activation
system.physmem.bytesPerActivate::30080-30087            2      0.00%     82.14% # Bytes accessed per row activation
system.physmem.bytesPerActivate::30144-30151            1      0.00%     82.14% # Bytes accessed per row activation
system.physmem.bytesPerActivate::30208-30215          139      0.15%     82.29% # Bytes accessed per row activation
system.physmem.bytesPerActivate::30272-30279            2      0.00%     82.29% # Bytes accessed per row activation
system.physmem.bytesPerActivate::30464-30471           17      0.02%     82.31% # Bytes accessed per row activation
system.physmem.bytesPerActivate::30528-30535            2      0.00%     82.31% # Bytes accessed per row activation
system.physmem.bytesPerActivate::30592-30599            5      0.01%     82.32% # Bytes accessed per row activation
system.physmem.bytesPerActivate::30720-30727          334      0.37%     82.68% # Bytes accessed per row activation
system.physmem.bytesPerActivate::30784-30791            2      0.00%     82.69% # Bytes accessed per row activation
system.physmem.bytesPerActivate::30976-30983           75      0.08%     82.77% # Bytes accessed per row activation
system.physmem.bytesPerActivate::31040-31047            2      0.00%     82.77% # Bytes accessed per row activation
system.physmem.bytesPerActivate::31104-31111            1      0.00%     82.77% # Bytes accessed per row activation
system.physmem.bytesPerActivate::31168-31175            1      0.00%     82.77% # Bytes accessed per row activation
system.physmem.bytesPerActivate::31232-31239           77      0.08%     82.86% # Bytes accessed per row activation
system.physmem.bytesPerActivate::31424-31431            2      0.00%     82.86% # Bytes accessed per row activation
system.physmem.bytesPerActivate::31488-31495           84      0.09%     82.95% # Bytes accessed per row activation
system.physmem.bytesPerActivate::31616-31623            6      0.01%     82.96% # Bytes accessed per row activation
system.physmem.bytesPerActivate::31680-31687            1      0.00%     82.96% # Bytes accessed per row activation
system.physmem.bytesPerActivate::31744-31751          392      0.43%     83.39% # Bytes accessed per row activation
system.physmem.bytesPerActivate::31808-31815            1      0.00%     83.39% # Bytes accessed per row activation
system.physmem.bytesPerActivate::31872-31879            1      0.00%     83.39% # Bytes accessed per row activation
system.physmem.bytesPerActivate::32000-32007           91      0.10%     83.49% # Bytes accessed per row activation
system.physmem.bytesPerActivate::32128-32135            2      0.00%     83.49% # Bytes accessed per row activation
system.physmem.bytesPerActivate::32256-32263           14      0.02%     83.51% # Bytes accessed per row activation
system.physmem.bytesPerActivate::32384-32391            2      0.00%     83.51% # Bytes accessed per row activation
system.physmem.bytesPerActivate::32512-32519           81      0.09%     83.60% # Bytes accessed per row activation
system.physmem.bytesPerActivate::32576-32583            1      0.00%     83.60% # Bytes accessed per row activation
system.physmem.bytesPerActivate::32640-32647            2      0.00%     83.60% # Bytes accessed per row activation
system.physmem.bytesPerActivate::32768-32775          668      0.73%     84.33% # Bytes accessed per row activation
system.physmem.bytesPerActivate::33024-33031           70      0.08%     84.41% # Bytes accessed per row activation
system.physmem.bytesPerActivate::33280-33287           13      0.01%     84.42% # Bytes accessed per row activation
system.physmem.bytesPerActivate::33344-33351            1      0.00%     84.42% # Bytes accessed per row activation
system.physmem.bytesPerActivate::33408-33415            3      0.00%     84.42% # Bytes accessed per row activation
system.physmem.bytesPerActivate::33536-33543           95      0.10%     84.53% # Bytes accessed per row activation
system.physmem.bytesPerActivate::33600-33607            1      0.00%     84.53% # Bytes accessed per row activation
system.physmem.bytesPerActivate::33664-33671            3      0.00%     84.53% # Bytes accessed per row activation
system.physmem.bytesPerActivate::33792-33799          402      0.44%     84.97% # Bytes accessed per row activation
system.physmem.bytesPerActivate::33920-33927            1      0.00%     84.97% # Bytes accessed per row activation
system.physmem.bytesPerActivate::34048-34055           82      0.09%     85.06% # Bytes accessed per row activation
system.physmem.bytesPerActivate::34304-34311           76      0.08%     85.15% # Bytes accessed per row activation
system.physmem.bytesPerActivate::34432-34439            4      0.00%     85.15% # Bytes accessed per row activation
system.physmem.bytesPerActivate::34560-34567           80      0.09%     85.24% # Bytes accessed per row activation
system.physmem.bytesPerActivate::34688-34695            1      0.00%     85.24% # Bytes accessed per row activation
system.physmem.bytesPerActivate::34752-34759            1      0.00%     85.24% # Bytes accessed per row activation
system.physmem.bytesPerActivate::34816-34823          334      0.37%     85.60% # Bytes accessed per row activation
system.physmem.bytesPerActivate::34944-34951            2      0.00%     85.61% # Bytes accessed per row activation
system.physmem.bytesPerActivate::35008-35015            1      0.00%     85.61% # Bytes accessed per row activation
system.physmem.bytesPerActivate::35072-35079           12      0.01%     85.62% # Bytes accessed per row activation
system.physmem.bytesPerActivate::35136-35143            1      0.00%     85.62% # Bytes accessed per row activation
system.physmem.bytesPerActivate::35200-35207            1      0.00%     85.62% # Bytes accessed per row activation
system.physmem.bytesPerActivate::35264-35271            1      0.00%     85.62% # Bytes accessed per row activation
system.physmem.bytesPerActivate::35328-35335          138      0.15%     85.78% # Bytes accessed per row activation
system.physmem.bytesPerActivate::35456-35463            3      0.00%     85.78% # Bytes accessed per row activation
system.physmem.bytesPerActivate::35584-35591           16      0.02%     85.80% # Bytes accessed per row activation
system.physmem.bytesPerActivate::35712-35719            3      0.00%     85.80% # Bytes accessed per row activation
system.physmem.bytesPerActivate::35840-35847          289      0.32%     86.12% # Bytes accessed per row activation
system.physmem.bytesPerActivate::35904-35911            1      0.00%     86.12% # Bytes accessed per row activation
system.physmem.bytesPerActivate::35968-35975            1      0.00%     86.12% # Bytes accessed per row activation
system.physmem.bytesPerActivate::36096-36103          143      0.16%     86.27% # Bytes accessed per row activation
system.physmem.bytesPerActivate::36352-36359          143      0.16%     86.43% # Bytes accessed per row activation
system.physmem.bytesPerActivate::36416-36423            2      0.00%     86.43% # Bytes accessed per row activation
system.physmem.bytesPerActivate::36480-36487            4      0.00%     86.44% # Bytes accessed per row activation
system.physmem.bytesPerActivate::36608-36615          101      0.11%     86.55% # Bytes accessed per row activation
system.physmem.bytesPerActivate::36864-36871          455      0.50%     87.04% # Bytes accessed per row activation
system.physmem.bytesPerActivate::37056-37063            1      0.00%     87.05% # Bytes accessed per row activation
system.physmem.bytesPerActivate::37120-37127            7      0.01%     87.05% # Bytes accessed per row activation
system.physmem.bytesPerActivate::37248-37255            2      0.00%     87.06% # Bytes accessed per row activation
system.physmem.bytesPerActivate::37312-37319            1      0.00%     87.06% # Bytes accessed per row activation
system.physmem.bytesPerActivate::37376-37383           19      0.02%     87.08% # Bytes accessed per row activation
system.physmem.bytesPerActivate::37504-37511            2      0.00%     87.08% # Bytes accessed per row activation
system.physmem.bytesPerActivate::37632-37639          137      0.15%     87.23% # Bytes accessed per row activation
system.physmem.bytesPerActivate::37888-37895          277      0.30%     87.53% # Bytes accessed per row activation
system.physmem.bytesPerActivate::38016-38023            1      0.00%     87.53% # Bytes accessed per row activation
system.physmem.bytesPerActivate::38144-38151            9      0.01%     87.54% # Bytes accessed per row activation
system.physmem.bytesPerActivate::38272-38279            1      0.00%     87.54% # Bytes accessed per row activation
system.physmem.bytesPerActivate::38336-38343            1      0.00%     87.54% # Bytes accessed per row activation
system.physmem.bytesPerActivate::38400-38407           70      0.08%     87.62% # Bytes accessed per row activation
system.physmem.bytesPerActivate::38464-38471            1      0.00%     87.62% # Bytes accessed per row activation
system.physmem.bytesPerActivate::38528-38535            2      0.00%     87.62% # Bytes accessed per row activation
system.physmem.bytesPerActivate::38656-38663          197      0.22%     87.84% # Bytes accessed per row activation
system.physmem.bytesPerActivate::38720-38727            1      0.00%     87.84% # Bytes accessed per row activation
system.physmem.bytesPerActivate::38784-38791            1      0.00%     87.84% # Bytes accessed per row activation
system.physmem.bytesPerActivate::38912-38919          387      0.42%     88.27% # Bytes accessed per row activation
system.physmem.bytesPerActivate::39040-39047            2      0.00%     88.27% # Bytes accessed per row activation
system.physmem.bytesPerActivate::39168-39175           74      0.08%     88.35% # Bytes accessed per row activation
system.physmem.bytesPerActivate::39424-39431           86      0.09%     88.44% # Bytes accessed per row activation
system.physmem.bytesPerActivate::39488-39495            2      0.00%     88.44% # Bytes accessed per row activation
system.physmem.bytesPerActivate::39552-39559            4      0.00%     88.45% # Bytes accessed per row activation
system.physmem.bytesPerActivate::39680-39687           16      0.02%     88.47% # Bytes accessed per row activation
system.physmem.bytesPerActivate::39808-39815            2      0.00%     88.47% # Bytes accessed per row activation
system.physmem.bytesPerActivate::39872-39879            1      0.00%     88.47% # Bytes accessed per row activation
system.physmem.bytesPerActivate::39936-39943          277      0.30%     88.77% # Bytes accessed per row activation
system.physmem.bytesPerActivate::40192-40199          154      0.17%     88.94% # Bytes accessed per row activation
system.physmem.bytesPerActivate::40320-40327            1      0.00%     88.94% # Bytes accessed per row activation
system.physmem.bytesPerActivate::40448-40455           11      0.01%     88.95% # Bytes accessed per row activation
system.physmem.bytesPerActivate::40576-40583            3      0.00%     88.96% # Bytes accessed per row activation
system.physmem.bytesPerActivate::40704-40711           77      0.08%     89.04% # Bytes accessed per row activation
system.physmem.bytesPerActivate::40960-40967          525      0.57%     89.62% # Bytes accessed per row activation
system.physmem.bytesPerActivate::41088-41095            1      0.00%     89.62% # Bytes accessed per row activation
system.physmem.bytesPerActivate::41216-41223           69      0.08%     89.69% # Bytes accessed per row activation
system.physmem.bytesPerActivate::41344-41351            3      0.00%     89.69% # Bytes accessed per row activation
system.physmem.bytesPerActivate::41472-41479           14      0.02%     89.71% # Bytes accessed per row activation
system.physmem.bytesPerActivate::41600-41607            1      0.00%     89.71% # Bytes accessed per row activation
system.physmem.bytesPerActivate::41728-41735          154      0.17%     89.88% # Bytes accessed per row activation
system.physmem.bytesPerActivate::41984-41991          280      0.31%     90.19% # Bytes accessed per row activation
system.physmem.bytesPerActivate::42112-42119            1      0.00%     90.19% # Bytes accessed per row activation
system.physmem.bytesPerActivate::42240-42247           18      0.02%     90.21% # Bytes accessed per row activation
system.physmem.bytesPerActivate::42304-42311            2      0.00%     90.21% # Bytes accessed per row activation
system.physmem.bytesPerActivate::42368-42375            1      0.00%     90.21% # Bytes accessed per row activation
system.physmem.bytesPerActivate::42496-42503           88      0.10%     90.31% # Bytes accessed per row activation
system.physmem.bytesPerActivate::42624-42631            2      0.00%     90.31% # Bytes accessed per row activation
system.physmem.bytesPerActivate::42752-42759           77      0.08%     90.39% # Bytes accessed per row activation
system.physmem.bytesPerActivate::42880-42887            2      0.00%     90.39% # Bytes accessed per row activation
system.physmem.bytesPerActivate::43008-43015          387      0.42%     90.82% # Bytes accessed per row activation
system.physmem.bytesPerActivate::43136-43143            1      0.00%     90.82% # Bytes accessed per row activation
system.physmem.bytesPerActivate::43264-43271          193      0.21%     91.03% # Bytes accessed per row activation
system.physmem.bytesPerActivate::43520-43527           69      0.08%     91.10% # Bytes accessed per row activation
system.physmem.bytesPerActivate::43648-43655            2      0.00%     91.11% # Bytes accessed per row activation
system.physmem.bytesPerActivate::43776-43783           13      0.01%     91.12% # Bytes accessed per row activation
system.physmem.bytesPerActivate::43904-43911            2      0.00%     91.12% # Bytes accessed per row activation
system.physmem.bytesPerActivate::44032-44039          277      0.30%     91.43% # Bytes accessed per row activation
system.physmem.bytesPerActivate::44096-44103            1      0.00%     91.43% # Bytes accessed per row activation
system.physmem.bytesPerActivate::44224-44231            2      0.00%     91.43% # Bytes accessed per row activation
system.physmem.bytesPerActivate::44288-44295          139      0.15%     91.58% # Bytes accessed per row activation
system.physmem.bytesPerActivate::44544-44551           17      0.02%     91.60% # Bytes accessed per row activation
system.physmem.bytesPerActivate::44608-44615            2      0.00%     91.60% # Bytes accessed per row activation
system.physmem.bytesPerActivate::44672-44679            3      0.00%     91.61% # Bytes accessed per row activation
system.physmem.bytesPerActivate::44800-44807           11      0.01%     91.62% # Bytes accessed per row activation
system.physmem.bytesPerActivate::44864-44871            1      0.00%     91.62% # Bytes accessed per row activation
system.physmem.bytesPerActivate::44992-44999            1      0.00%     91.62% # Bytes accessed per row activation
system.physmem.bytesPerActivate::45056-45063          459      0.50%     92.12% # Bytes accessed per row activation
system.physmem.bytesPerActivate::45184-45191            1      0.00%     92.12% # Bytes accessed per row activation
system.physmem.bytesPerActivate::45312-45319           99      0.11%     92.23% # Bytes accessed per row activation
system.physmem.bytesPerActivate::45376-45383            3      0.00%     92.23% # Bytes accessed per row activation
system.physmem.bytesPerActivate::45440-45447            3      0.00%     92.24% # Bytes accessed per row activation
system.physmem.bytesPerActivate::45568-45575          148      0.16%     92.40% # Bytes accessed per row activation
system.physmem.bytesPerActivate::45696-45703            2      0.00%     92.40% # Bytes accessed per row activation
system.physmem.bytesPerActivate::45760-45767            1      0.00%     92.40% # Bytes accessed per row activation
system.physmem.bytesPerActivate::45824-45831          151      0.17%     92.57% # Bytes accessed per row activation
system.physmem.bytesPerActivate::46016-46023            1      0.00%     92.57% # Bytes accessed per row activation
system.physmem.bytesPerActivate::46080-46087          285      0.31%     92.88% # Bytes accessed per row activation
system.physmem.bytesPerActivate::46208-46215            1      0.00%     92.88% # Bytes accessed per row activation
[...]
system.cpu1.dcache.WriteReq_miss_latency::total  79209493026                       # number of WriteReq miss cycles
system.cpu1.dcache.LoadLockedReq_miss_latency::cpu1.data    131211992                       # number of LoadLockedReq miss cycles
system.cpu1.dcache.LoadLockedReq_miss_latency::total    131211992                       # number of LoadLockedReq miss cycles
system.cpu1.dcache.StoreCondReq_miss_latency::cpu1.data     58251087                       # number of StoreCondReq miss cycles
system.cpu1.dcache.StoreCondReq_miss_latency::total     58251087                       # number of StoreCondReq miss cycles
system.cpu1.dcache.demand_miss_latency::cpu1.data  85331617002                       # number of demand (read+write) miss cycles
system.cpu1.dcache.demand_miss_latency::total  85331617002                       # number of demand (read+write) miss cycles
system.cpu1.dcache.overall_miss_latency::cpu1.data  85331617002                       # number of overall miss cycles
system.cpu1.dcache.overall_miss_latency::total  85331617002                       # number of overall miss cycles
system.cpu1.dcache.ReadReq_accesses::cpu1.data      8921031                       # number of ReadReq accesses(hits+misses)
system.cpu1.dcache.ReadReq_accesses::total      8921031                       # number of ReadReq accesses(hits+misses)
system.cpu1.dcache.WriteReq_accesses::cpu1.data      5836611                       # number of WriteReq accesses(hits+misses)
system.cpu1.dcache.WriteReq_accesses::total      5836611                       # number of WriteReq accesses(hits+misses)
system.cpu1.dcache.LoadLockedReq_accesses::cpu1.data       114090                       # number of LoadLockedReq accesses(hits+misses)
system.cpu1.dcache.LoadLockedReq_accesses::total       114090                       # number of LoadLockedReq accesses(hits+misses)
system.cpu1.dcache.StoreCondReq_accesses::cpu1.data       107966                       # number of StoreCondReq accesses(hits+misses)
system.cpu1.dcache.StoreCondReq_accesses::total       107966                       # number of StoreCondReq accesses(hits+misses)
system.cpu1.dcache.demand_accesses::cpu1.data     14757642                       # number of demand (read+write) accesses
system.cpu1.dcache.demand_accesses::total     14757642                       # number of demand (read+write) accesses
system.cpu1.dcache.overall_accesses::cpu1.data     14757642                       # number of overall (read+write) accesses
system.cpu1.dcache.overall_accesses::total     14757642                       # number of overall (read+write) accesses
system.cpu1.dcache.ReadReq_miss_rate::cpu1.data     0.045136                       # miss rate for ReadReq accesses
system.cpu1.dcache.ReadReq_miss_rate::total     0.045136                       # miss rate for ReadReq accesses
system.cpu1.dcache.WriteReq_miss_rate::cpu1.data     0.268307                       # miss rate for WriteReq accesses
system.cpu1.dcache.WriteReq_miss_rate::total     0.268307                       # miss rate for WriteReq accesses
system.cpu1.dcache.LoadLockedReq_miss_rate::cpu1.data     0.124674                       # miss rate for LoadLockedReq accesses
system.cpu1.dcache.LoadLockedReq_miss_rate::total     0.124674                       # miss rate for LoadLockedReq accesses
system.cpu1.dcache.StoreCondReq_miss_rate::cpu1.data     0.101245                       # miss rate for StoreCondReq accesses
system.cpu1.dcache.StoreCondReq_miss_rate::total     0.101245                       # miss rate for StoreCondReq accesses
system.cpu1.dcache.demand_miss_rate::cpu1.data     0.133399                       # miss rate for demand accesses
system.cpu1.dcache.demand_miss_rate::total     0.133399                       # miss rate for demand accesses
system.cpu1.dcache.overall_miss_rate::cpu1.data     0.133399                       # miss rate for overall accesses
system.cpu1.dcache.overall_miss_rate::total     0.133399                       # miss rate for overall accesses
system.cpu1.dcache.ReadReq_avg_miss_latency::cpu1.data 15204.239756                       # average ReadReq miss latency
system.cpu1.dcache.ReadReq_avg_miss_latency::total 15204.239756                       # average ReadReq miss latency
system.cpu1.dcache.WriteReq_avg_miss_latency::cpu1.data 50580.710003                       # average WriteReq miss latency
system.cpu1.dcache.WriteReq_avg_miss_latency::total 50580.710003                       # average WriteReq miss latency
system.cpu1.dcache.LoadLockedReq_avg_miss_latency::cpu1.data  9224.690101                       # average LoadLockedReq miss latency
system.cpu1.dcache.LoadLockedReq_avg_miss_latency::total  9224.690101                       # average LoadLockedReq miss latency
system.cpu1.dcache.StoreCondReq_avg_miss_latency::cpu1.data  5328.980606                       # average StoreCondReq miss latency
system.cpu1.dcache.StoreCondReq_avg_miss_latency::total  5328.980606                       # average StoreCondReq miss latency
system.cpu1.dcache.demand_avg_miss_latency::cpu1.data 43345.003026                       # average overall miss latency
system.cpu1.dcache.demand_avg_miss_latency::total 43345.003026                       # average overall miss latency
system.cpu1.dcache.overall_avg_miss_latency::cpu1.data 43345.003026                       # average overall miss latency
system.cpu1.dcache.overall_avg_miss_latency::total 43345.003026                       # average overall miss latency
system.cpu1.dcache.blocked_cycles::no_mshrs        29359                       # number of cycles access was blocked
system.cpu1.dcache.blocked_cycles::no_targets        20069                       # number of cycles access was blocked
system.cpu1.dcache.blocked::no_mshrs             3274                       # number of cycles access was blocked
system.cpu1.dcache.blocked::no_targets            177                       # number of cycles access was blocked
system.cpu1.dcache.avg_blocked_cycles::no_mshrs     8.967318                       # average number of cycles each access was blocked
system.cpu1.dcache.avg_blocked_cycles::no_targets   113.384181                       # average number of cycles each access was blocked
system.cpu1.dcache.fast_writes                      0                       # number of fast writes performed
system.cpu1.dcache.cache_copies                     0                       # number of cache copies performed
system.cpu1.dcache.writebacks::writebacks       327725                       # number of writebacks
system.cpu1.dcache.writebacks::total           327725                       # number of writebacks
system.cpu1.dcache.ReadReq_mshr_hits::cpu1.data       171279                       # number of ReadReq MSHR hits
system.cpu1.dcache.ReadReq_mshr_hits::total       171279                       # number of ReadReq MSHR hits
system.cpu1.dcache.WriteReq_mshr_hits::cpu1.data      1402802                       # number of WriteReq MSHR hits
system.cpu1.dcache.WriteReq_mshr_hits::total      1402802                       # number of WriteReq MSHR hits
system.cpu1.dcache.LoadLockedReq_mshr_hits::cpu1.data         1455                       # number of LoadLockedReq MSHR hits
system.cpu1.dcache.LoadLockedReq_mshr_hits::total         1455                       # number of LoadLockedReq MSHR hits
system.cpu1.dcache.demand_mshr_hits::cpu1.data      1574081                       # number of demand (read+write) MSHR hits
system.cpu1.dcache.demand_mshr_hits::total      1574081                       # number of demand (read+write) MSHR hits
system.cpu1.dcache.overall_mshr_hits::cpu1.data      1574081                       # number of overall MSHR hits
system.cpu1.dcache.overall_mshr_hits::total      1574081                       # number of overall MSHR hits
system.cpu1.dcache.ReadReq_mshr_misses::cpu1.data       231380                       # number of ReadReq MSHR misses
system.cpu1.dcache.ReadReq_mshr_misses::total       231380                       # number of ReadReq MSHR misses
system.cpu1.dcache.WriteReq_mshr_misses::cpu1.data       163200                       # number of WriteReq MSHR misses
system.cpu1.dcache.WriteReq_mshr_misses::total       163200                       # number of WriteReq MSHR misses
system.cpu1.dcache.LoadLockedReq_mshr_misses::cpu1.data        12769                       # number of LoadLockedReq MSHR misses
system.cpu1.dcache.LoadLockedReq_mshr_misses::total        12769                       # number of LoadLockedReq MSHR misses
system.cpu1.dcache.StoreCondReq_mshr_misses::cpu1.data        10931                       # number of StoreCondReq MSHR misses
system.cpu1.dcache.StoreCondReq_mshr_misses::total        10931                       # number of StoreCondReq MSHR misses
system.cpu1.dcache.demand_mshr_misses::cpu1.data       394580                       # number of demand (read+write) MSHR misses
system.cpu1.dcache.demand_mshr_misses::total       394580                       # number of demand (read+write) MSHR misses
system.cpu1.dcache.overall_mshr_misses::cpu1.data       394580                       # number of overall MSHR misses
system.cpu1.dcache.overall_mshr_misses::total       394580                       # number of overall MSHR misses
system.cpu1.dcache.ReadReq_mshr_miss_latency::cpu1.data   2885564133                       # number of ReadReq MSHR miss cycles
system.cpu1.dcache.ReadReq_mshr_miss_latency::total   2885564133                       # number of ReadReq MSHR miss cycles
system.cpu1.dcache.WriteReq_mshr_miss_latency::cpu1.data   7076211500                       # number of WriteReq MSHR miss cycles
system.cpu1.dcache.WriteReq_mshr_miss_latency::total   7076211500                       # number of WriteReq MSHR miss cycles
system.cpu1.dcache.LoadLockedReq_mshr_miss_latency::cpu1.data     89844256                       # number of LoadLockedReq MSHR miss cycles
system.cpu1.dcache.LoadLockedReq_mshr_miss_latency::total     89844256                       # number of LoadLockedReq MSHR miss cycles
system.cpu1.dcache.StoreCondReq_mshr_miss_latency::cpu1.data     36388913                       # number of StoreCondReq MSHR miss cycles
system.cpu1.dcache.StoreCondReq_mshr_miss_latency::total     36388913                       # number of StoreCondReq MSHR miss cycles
system.cpu1.dcache.StoreCondFailReq_mshr_miss_latency::cpu1.data         1000                       # number of StoreCondFailReq MSHR miss cycles
system.cpu1.dcache.StoreCondFailReq_mshr_miss_latency::total         1000                       # number of StoreCondFailReq MSHR miss cycles
system.cpu1.dcache.demand_mshr_miss_latency::cpu1.data   9961775633                       # number of demand (read+write) MSHR miss cycles
system.cpu1.dcache.demand_mshr_miss_latency::total   9961775633                       # number of demand (read+write) MSHR miss cycles
system.cpu1.dcache.overall_mshr_miss_latency::cpu1.data   9961775633                       # number of overall MSHR miss cycles
system.cpu1.dcache.overall_mshr_miss_latency::total   9961775633                       # number of overall MSHR miss cycles
system.cpu1.dcache.ReadReq_mshr_uncacheable_latency::cpu1.data 169230997009                       # number of ReadReq MSHR uncacheable cycles
system.cpu1.dcache.ReadReq_mshr_uncacheable_latency::total 169230997009                       # number of ReadReq MSHR uncacheable cycles
system.cpu1.dcache.WriteReq_mshr_uncacheable_latency::cpu1.data  25854670209                       # number of WriteReq MSHR uncacheable cycles
system.cpu1.dcache.WriteReq_mshr_uncacheable_latency::total  25854670209                       # number of WriteReq MSHR uncacheable cycles
system.cpu1.dcache.overall_mshr_uncacheable_latency::cpu1.data 195085667218                       # number of overall MSHR uncacheable cycles
system.cpu1.dcache.overall_mshr_uncacheable_latency::total 195085667218                       # number of overall MSHR uncacheable cycles
system.cpu1.dcache.ReadReq_mshr_miss_rate::cpu1.data     0.025936                       # mshr miss rate for ReadReq accesses
system.cpu1.dcache.ReadReq_mshr_miss_rate::total     0.025936                       # mshr miss rate for ReadReq accesses
system.cpu1.dcache.WriteReq_mshr_miss_rate::cpu1.data     0.027961                       # mshr miss rate for WriteReq accesses
system.cpu1.dcache.WriteReq_mshr_miss_rate::total     0.027961                       # mshr miss rate for WriteReq accesses
system.cpu1.dcache.LoadLockedReq_mshr_miss_rate::cpu1.data     0.111920                       # mshr miss rate for LoadLockedReq accesses
system.cpu1.dcache.LoadLockedReq_mshr_miss_rate::total     0.111920                       # mshr miss rate for LoadLockedReq accesses
system.cpu1.dcache.StoreCondReq_mshr_miss_rate::cpu1.data     0.101245                       # mshr miss rate for StoreCondReq accesses
system.cpu1.dcache.StoreCondReq_mshr_miss_rate::total     0.101245                       # mshr miss rate for StoreCondReq accesses
system.cpu1.dcache.demand_mshr_miss_rate::cpu1.data     0.026737                       # mshr miss rate for demand accesses
system.cpu1.dcache.demand_mshr_miss_rate::total     0.026737                       # mshr miss rate for demand accesses
system.cpu1.dcache.overall_mshr_miss_rate::cpu1.data     0.026737                       # mshr miss rate for overall accesses
system.cpu1.dcache.overall_mshr_miss_rate::total     0.026737                       # mshr miss rate for overall accesses
system.cpu1.dcache.ReadReq_avg_mshr_miss_latency::cpu1.data 12471.104387                       # average ReadReq mshr miss latency
system.cpu1.dcache.ReadReq_avg_mshr_miss_latency::total 12471.104387                       # average ReadReq mshr miss latency
system.cpu1.dcache.WriteReq_avg_mshr_miss_latency::cpu1.data 43359.139093                       # average WriteReq mshr miss latency
system.cpu1.dcache.WriteReq_avg_mshr_miss_latency::total 43359.139093                       # average WriteReq mshr miss latency
system.cpu1.dcache.LoadLockedReq_avg_mshr_miss_latency::cpu1.data  7036.123111                       # average LoadLockedReq mshr miss latency
system.cpu1.dcache.LoadLockedReq_avg_mshr_miss_latency::total  7036.123111                       # average LoadLockedReq mshr miss latency
system.cpu1.dcache.StoreCondReq_avg_mshr_miss_latency::cpu1.data  3328.964688                       # average StoreCondReq mshr miss latency
system.cpu1.dcache.StoreCondReq_avg_mshr_miss_latency::total  3328.964688                       # average StoreCondReq mshr miss latency
system.cpu1.dcache.StoreCondFailReq_avg_mshr_miss_latency::cpu1.data          inf                       # average StoreCondFailReq mshr miss latency
system.cpu1.dcache.StoreCondFailReq_avg_mshr_miss_latency::total          inf                       # average StoreCondFailReq mshr miss latency
system.cpu1.dcache.demand_avg_mshr_miss_latency::cpu1.data 25246.529558                       # average overall mshr miss latency
system.cpu1.dcache.demand_avg_mshr_miss_latency::total 25246.529558                       # average overall mshr miss latency
system.cpu1.dcache.overall_avg_mshr_miss_latency::cpu1.data 25246.529558                       # average overall mshr miss latency
system.cpu1.dcache.overall_avg_mshr_miss_latency::total 25246.529558                       # average overall mshr miss latency
system.cpu1.dcache.ReadReq_avg_mshr_uncacheable_latency::cpu1.data          inf                       # average ReadReq mshr uncacheable latency
system.cpu1.dcache.ReadReq_avg_mshr_uncacheable_latency::total          inf                       # average ReadReq mshr uncacheable latency
system.cpu1.dcache.WriteReq_avg_mshr_uncacheable_latency::cpu1.data          inf                       # average WriteReq mshr uncacheable latency
system.cpu1.dcache.WriteReq_avg_mshr_uncacheable_latency::total          inf                       # average WriteReq mshr uncacheable latency
system.cpu1.dcache.overall_avg_mshr_uncacheable_latency::cpu1.data          inf                       # average overall mshr uncacheable latency
system.cpu1.dcache.overall_avg_mshr_uncacheable_latency::total          inf                       # average overall mshr uncacheable latency
system.cpu1.dcache.no_allocate_misses               0                       # Number of misses that were no-allocate
system.iocache.tags.replacements                    0                       # number of replacements
system.iocache.tags.tagsinuse                       0                       # Cycle average of tags in use
system.iocache.tags.total_refs                      0                       # Total number of references to valid blocks.
system.iocache.tags.sampled_refs                    0                       # Sample count of references to valid blocks.
system.iocache.tags.avg_refs                      nan                       # Average number of references to valid blocks.
system.iocache.tags.warmup_cycle                    0                       # Cycle when the warmup percentage was hit.
system.iocache.tags.tag_accesses                    0                       # Number of tag accesses
system.iocache.tags.data_accesses                   0                       # Number of data accesses
system.iocache.blocked_cycles::no_mshrs             0                       # number of cycles access was blocked
system.iocache.blocked_cycles::no_targets            0                       # number of cycles access was blocked
system.iocache.blocked::no_mshrs                    0                       # number of cycles access was blocked
system.iocache.blocked::no_targets                  0                       # number of cycles access was blocked
system.iocache.avg_blocked_cycles::no_mshrs          nan                       # average number of cycles each access was blocked
system.iocache.avg_blocked_cycles::no_targets          nan                       # average number of cycles each access was blocked
system.iocache.fast_writes                          0                       # number of fast writes performed
system.iocache.cache_copies                         0                       # number of cache copies performed
system.iocache.ReadReq_mshr_uncacheable_latency::realview.clcd 1519280505301                       # number of ReadReq MSHR uncacheable cycles
system.iocache.ReadReq_mshr_uncacheable_latency::total 1519280505301                       # number of ReadReq MSHR uncacheable cycles
system.iocache.overall_mshr_uncacheable_latency::realview.clcd 1519280505301                       # number of overall MSHR uncacheable cycles
system.iocache.overall_mshr_uncacheable_latency::total 1519280505301                       # number of overall MSHR uncacheable cycles
system.iocache.ReadReq_avg_mshr_uncacheable_latency::realview.clcd          inf                       # average ReadReq mshr uncacheable latency
system.iocache.ReadReq_avg_mshr_uncacheable_latency::total          inf                       # average ReadReq mshr uncacheable latency
system.iocache.overall_avg_mshr_uncacheable_latency::realview.clcd          inf                       # average overall mshr uncacheable latency
system.iocache.overall_avg_mshr_uncacheable_latency::total          inf                       # average overall mshr uncacheable latency
system.iocache.no_allocate_misses                   0                       # Number of misses that were no-allocate
system.cpu0.kern.inst.arm                           0                       # number of arm instructions executed
system.cpu0.kern.inst.quiesce                   42637                       # number of quiesce instructions executed
system.cpu1.kern.inst.arm                           0                       # number of arm instructions executed
system.cpu1.kern.inst.quiesce                   50394                       # number of quiesce instructions executed

---------- End Simulation Statistics   ----------
