gem5 Simulator System.  http://gem5.org
gem5 is copyrighted software; use the --copyright option for details.

gem5 compiled Feb 11 2012 13:07:32
gem5 started Feb 11 2012 13:54:50
gem5 executing on zizzer
command line: build/MIPS/gem5.fast -d build/MIPS/tests/fast/quick/se/00.hello/mips/linux/simple-timing -re tests/run.py build/MIPS/tests/fast/quick/se/00.hello/mips/linux/simple-timing
Global frequency set at 1000000000000 ticks per second
info: Entering event queue @ 0.  Starting simulation...
info: Increasing stack size by one page.
Hello World!
Exiting @ tick 32088000 because target called exit()
