
---------- Begin Simulation Statistics ----------
sim_seconds                                  2.868319                       # Number of seconds simulated
sim_ticks                                2868318696500                       # Number of ticks simulated
final_tick                               2868318696500                       # Number of ticks from beginning of simulation (restored from checkpoints and never reset)
sim_freq                                 1000000000000                       # Frequency of simulated ticks
host_inst_rate                                 534652                       # Simulator instruction rate (inst/s)
host_op_rate                                   646675                       # Simulator op (including micro ops) rate (op/s)
host_tick_rate                            11631340017                       # Simulator tick rate (ticks/s)
host_mem_usage                                 586476                       # Number of bytes of host memory used
host_seconds                                   246.60                       # Real time elapsed on the host
sim_insts                                   131846562                       # Number of instructions simulated
sim_ops                                     159471778                       # Number of ops (including micro ops) simulated
system.voltage_domain.voltage                       1                       # Voltage in Volts
system.clk_domain.clock                          1000                       # Clock period in ticks
system.physmem.bytes_read::cpu0.dtb.walker          448                       # Number of bytes read from this memory
system.physmem.bytes_read::cpu0.itb.walker          128                       # Number of bytes read from this memory
system.physmem.bytes_read::cpu0.inst          1173796                       # Number of bytes read from this memory
system.physmem.bytes_read::cpu0.data          1283584                       # Number of bytes read from this memory
system.physmem.bytes_read::cpu0.l2cache.prefetcher      8628800                       # Number of bytes read from this memory
system.physmem.bytes_read::cpu1.dtb.walker           64                       # Number of bytes read from this memory
system.physmem.bytes_read::cpu1.inst           156308                       # Number of bytes read from this memory
system.physmem.bytes_read::cpu1.data           605472                       # Number of bytes read from this memory
system.physmem.bytes_read::cpu1.l2cache.prefetcher       378048                       # Number of bytes read from this memory
system.physmem.bytes_read::realview.ide           960                       # Number of bytes read from this memory
system.physmem.bytes_read::total             12227608                       # Number of bytes read from this memory
system.physmem.bytes_inst_read::cpu0.inst      1173796                       # Number of instructions bytes read from this memory
system.physmem.bytes_inst_read::cpu1.inst       156308                       # Number of instructions bytes read from this memory
system.physmem.bytes_inst_read::total         1330104                       # Number of instructions bytes read from this memory
system.physmem.bytes_written::writebacks      8654400                       # Number of bytes written to this memory
system.physmem.bytes_written::cpu0.data         17704                       # Number of bytes written to this memory
system.physmem.bytes_written::cpu1.data            40                       # Number of bytes written to this memory
system.physmem.bytes_written::total           8672144                       # Number of bytes written to this memory
system.physmem.num_reads::cpu0.dtb.walker            7                       # Number of read requests responded to by this memory
system.physmem.num_reads::cpu0.itb.walker            2                       # Number of read requests responded to by this memory
system.physmem.num_reads::cpu0.inst             26794                       # Number of read requests responded to by this memory
system.physmem.num_reads::cpu0.data             20582                       # Number of read requests responded to by this memory
system.physmem.num_reads::cpu0.l2cache.prefetcher       134825                       # Number of read requests responded to by this memory
system.physmem.num_reads::cpu1.dtb.walker            1                       # Number of read requests responded to by this memory
system.physmem.num_reads::cpu1.inst              2597                       # Number of read requests responded to by this memory
system.physmem.num_reads::cpu1.data              9484                       # Number of read requests responded to by this memory
system.physmem.num_reads::cpu1.l2cache.prefetcher         5907                       # Number of read requests responded to by this memory
system.physmem.num_reads::realview.ide             15                       # Number of read requests responded to by this memory
system.physmem.num_reads::total                200214                       # Number of read requests responded to by this memory
system.physmem.num_writes::writebacks          135225                       # Number of write requests responded to by this memory
system.physmem.num_writes::cpu0.data             4426                       # Number of write requests responded to by this memory
system.physmem.num_writes::cpu1.data               10                       # Number of write requests responded to by this memory
system.physmem.num_writes::total               139661                       # Number of write requests responded to by this memory
system.physmem.bw_read::cpu0.dtb.walker           156                       # Total read bandwidth from this memory (bytes/s)
system.physmem.bw_read::cpu0.itb.walker            45                       # Total read bandwidth from this memory (bytes/s)
system.physmem.bw_read::cpu0.inst              409228                       # Total read bandwidth from this memory (bytes/s)
system.physmem.bw_read::cpu0.data              447504                       # Total read bandwidth from this memory (bytes/s)
system.physmem.bw_read::cpu0.l2cache.prefetcher      3008313                       # Total read bandwidth from this memory (bytes/s)
system.physmem.bw_read::cpu1.dtb.walker            22                       # Total read bandwidth from this memory (bytes/s)
system.physmem.bw_read::cpu1.inst               54495                       # Total read bandwidth from this memory (bytes/s)
system.physmem.bw_read::cpu1.data              211090                       # Total read bandwidth from this memory (bytes/s)
system.physmem.bw_read::cpu1.l2cache.prefetcher       131801                       # Total read bandwidth from this memory (bytes/s)
system.physmem.bw_read::realview.ide              335                       # Total read bandwidth from this memory (bytes/s)
system.physmem.bw_read::total                 4262988                       # Total read bandwidth from this memory (bytes/s)
system.physmem.bw_inst_read::cpu0.inst         409228                       # Instruction read bandwidth from this memory (bytes/s)
system.physmem.bw_inst_read::cpu1.inst          54495                       # Instruction read bandwidth from this memory (bytes/s)
system.physmem.bw_inst_read::total             463723                       # Instruction read bandwidth from this memory (bytes/s)
system.physmem.bw_write::writebacks           3017238                       # Write bandwidth from this memory (bytes/s)
system.physmem.bw_write::cpu0.data               6172                       # Write bandwidth from this memory (bytes/s)
system.physmem.bw_write::cpu1.data                 14                       # Write bandwidth from this memory (bytes/s)
system.physmem.bw_write::total                3023424                       # Write bandwidth from this memory (bytes/s)
system.physmem.bw_total::writebacks           3017238                       # Total bandwidth to/from this memory (bytes/s)
system.physmem.bw_total::cpu0.dtb.walker          156                       # Total bandwidth to/from this memory (bytes/s)
system.physmem.bw_total::cpu0.itb.walker           45                       # Total bandwidth to/from this memory (bytes/s)
system.physmem.bw_total::cpu0.inst             409228                       # Total bandwidth to/from this memory (bytes/s)
system.physmem.bw_total::cpu0.data             453676                       # Total bandwidth to/from this memory (bytes/s)
system.physmem.bw_total::cpu0.l2cache.prefetcher      3008313                       # Total bandwidth to/from this memory (bytes/s)
system.physmem.bw_total::cpu1.dtb.walker           22                       # Total bandwidth to/from this memory (bytes/s)
system.physmem.bw_total::cpu1.inst              54495                       # Total bandwidth to/from this memory (bytes/s)
system.physmem.bw_total::cpu1.data             211103                       # Total bandwidth to/from this memory (bytes/s)
system.physmem.bw_total::cpu1.l2cache.prefetcher       131801                       # Total bandwidth to/from this memory (bytes/s)
system.physmem.bw_total::realview.ide             335                       # Total bandwidth to/from this memory (bytes/s)
system.physmem.bw_total::total                7286412                       # Total bandwidth to/from this memory (bytes/s)
system.physmem.readReqs                        200214                       # Number of read requests accepted
system.physmem.writeReqs                       175885                       # Number of write requests accepted
system.physmem.readBursts                      200214                       # Number of DRAM read bursts, including those serviced by the write queue
system.physmem.writeBursts                     175885                       # Number of DRAM write bursts, including those merged in the write queue
system.physmem.bytesReadDRAM                 12804096                       # Total number of bytes read from DRAM
system.physmem.bytesReadWrQ                      9600                       # Total number of bytes read from write queue
system.physmem.bytesWritten                  10892544                       # Total number of bytes written to DRAM
system.physmem.bytesReadSys                  12227608                       # Total read bytes from the system interface side
system.physmem.bytesWrittenSys               10990480                       # Total written bytes from the system interface side
system.physmem.servicedByWrQ                      150                       # Number of DRAM read bursts serviced by the write queue
system.physmem.mergedWrBursts                    5671                       # Number of DRAM write bursts merged with an existing one
system.physmem.neitherReadNorWriteReqs          13850                       # Number of requests that are neither read nor write
system.physmem.perBankRdBursts::0               12188                       # Per bank write bursts
system.physmem.perBankRdBursts::1               12046                       # Per bank write bursts
system.physmem.perBankRdBursts::2               12591                       # Per bank write bursts
system.physmem.perBankRdBursts::3               12330                       # Per bank write bursts
system.physmem.perBankRdBursts::4               20750                       # Per bank write bursts
system.physmem.perBankRdBursts::5               12582                       # Per bank write bursts
system.physmem.perBankRdBursts::6               12043                       # Per bank write bursts
system.physmem.perBankRdBursts::7               12246                       # Per bank write bursts
system.physmem.perBankRdBursts::8               12442                       # Per bank write bursts
system.physmem.perBankRdBursts::9               12402                       # Per bank write bursts
system.physmem.perBankRdBursts::10              11722                       # Per bank write bursts
system.physmem.perBankRdBursts::11              11146                       # Per bank write bursts
system.physmem.perBankRdBursts::12              11467                       # Per bank write bursts
system.physmem.perBankRdBursts::13              11916                       # Per bank write bursts
system.physmem.perBankRdBursts::14              10852                       # Per bank write bursts
system.physmem.perBankRdBursts::15              11341                       # Per bank write bursts
system.physmem.perBankWrBursts::0               10835                       # Per bank write bursts
system.physmem.perBankWrBursts::1               11264                       # Per bank write bursts
system.physmem.perBankWrBursts::2               11493                       # Per bank write bursts
system.physmem.perBankWrBursts::3               10899                       # Per bank write bursts
system.physmem.perBankWrBursts::4               10487                       # Per bank write bursts
system.physmem.perBankWrBursts::5               11152                       # Per bank write bursts
system.physmem.perBankWrBursts::6               11024                       # Per bank write bursts
system.physmem.perBankWrBursts::7               10595                       # Per bank write bursts
system.physmem.perBankWrBursts::8               10782                       # Per bank write bursts
system.physmem.perBankWrBursts::9               10958                       # Per bank write bursts
system.physmem.perBankWrBursts::10              10716                       # Per bank write bursts
system.physmem.perBankWrBursts::11              10408                       # Per bank write bursts
system.physmem.perBankWrBursts::12              10444                       # Per bank write bursts
system.physmem.perBankWrBursts::13               9906                       # Per bank write bursts
system.physmem.perBankWrBursts::14               9416                       # Per bank write bursts
system.physmem.perBankWrBursts::15               9817                       # Per bank write bursts
system.physmem.numRdRetry                           0                       # Number of times read queue was full causing retry
system.physmem.numWrRetry                           1                       # Number of times write queue was full causing retry
system.physmem.totGap                    2868318254500                       # Total gap between requests
system.physmem.readPktSize::0                       0                       # Read request sizes (log2)
system.physmem.readPktSize::1                       0                       # Read request sizes (log2)
system.physmem.readPktSize::2                    9742                       # Read request sizes (log2)
system.physmem.readPktSize::3                      28                       # Read request sizes (log2)
system.physmem.readPktSize::4                       0                       # Read request sizes (log2)
system.physmem.readPktSize::5                       0                       # Read request sizes (log2)
system.physmem.readPktSize::6                  190444                       # Read request sizes (log2)
system.physmem.writePktSize::0                      0                       # Write request sizes (log2)
system.physmem.writePktSize::1                      0                       # Write request sizes (log2)
system.physmem.writePktSize::2                   4436                       # Write request sizes (log2)
system.physmem.writePktSize::3                      0                       # Write request sizes (log2)
system.physmem.writePktSize::4                      0                       # Write request sizes (log2)
system.physmem.writePktSize::5                      0                       # Write request sizes (log2)
system.physmem.writePktSize::6                 171449                       # Write request sizes (log2)
system.physmem.rdQLenPdf::0                    138850                       # What read queue length does an incoming req see
system.physmem.rdQLenPdf::1                     16077                       # What read queue length does an incoming req see
system.physmem.rdQLenPdf::2                     10399                       # What read queue length does an incoming req see
system.physmem.rdQLenPdf::3                      9072                       # What read queue length does an incoming req see
system.physmem.rdQLenPdf::4                      7297                       # What read queue length does an incoming req see
system.physmem.rdQLenPdf::5                      5697                       # What read queue length does an incoming req see
system.physmem.rdQLenPdf::6                      4782                       # What read queue length does an incoming req see
system.physmem.rdQLenPdf::7                      4036                       # What read queue length does an incoming req see
system.physmem.rdQLenPdf::8                      3549                       # What read queue length does an incoming req see
system.physmem.rdQLenPdf::9                       129                       # What read queue length does an incoming req see
system.physmem.rdQLenPdf::10                       88                       # What read queue length does an incoming req see
system.physmem.rdQLenPdf::11                       52                       # What read queue length does an incoming req see
system.physmem.rdQLenPdf::12                       20                       # What read queue length does an incoming req see
system.physmem.rdQLenPdf::13                        8                       # What read queue length does an incoming req see
system.physmem.rdQLenPdf::14                        3                       # What read queue length does an incoming req see
system.physmem.rdQLenPdf::15                        2                       # What read queue length does an incoming req see
system.physmem.rdQLenPdf::16                        2                       # What read queue length does an incoming req see
system.physmem.rdQLenPdf::17                        1                       # What read queue length does an incoming req see
system.physmem.rdQLenPdf::18                        0                       # What read queue length does an incoming req see
system.physmem.rdQLenPdf::19                        0                       # What read queue length does an incoming req see
system.physmem.rdQLenPdf::20                        0                       # What read queue length does an incoming req see
system.physmem.rdQLenPdf::21                        0                       # What read queue length does an incoming req see
system.physmem.rdQLenPdf::22                        0                       # What read queue length does an incoming req see
system.physmem.rdQLenPdf::23                        0                       # What read queue length does an incoming req see
system.physmem.rdQLenPdf::24                        0                       # What read queue length does an incoming req see
system.physmem.rdQLenPdf::25                        0                       # What read queue length does an incoming req see
system.physmem.rdQLenPdf::26                        0                       # What read queue length does an incoming req see
system.physmem.rdQLenPdf::27                        0                       # What read queue length does an incoming req see
system.physmem.rdQLenPdf::28                        0                       # What read queue length does an incoming req see
system.physmem.rdQLenPdf::29                        0                       # What read queue length does an incoming req see
system.physmem.rdQLenPdf::30                        0                       # What read queue length does an incoming req see
system.physmem.rdQLenPdf::31                        0                       # What read queue length does an incoming req see
system.physmem.wrQLenPdf::0                         1                       # What write queue length does an incoming req see
system.physmem.wrQLenPdf::1                         1                       # What write queue length does an incoming req see
system.physmem.wrQLenPdf::2                         1                       # What write queue length does an incoming req see
system.physmem.wrQLenPdf::3                         1                       # What write queue length does an incoming req see
system.physmem.wrQLenPdf::4                         1                       # What write queue length does an incoming req see
system.physmem.wrQLenPdf::5                         1                       # What write queue length does an incoming req see
system.physmem.wrQLenPdf::6                         1                       # What write queue length does an incoming req see
system.physmem.wrQLenPdf::7                         1                       # What write queue length does an incoming req see
system.physmem.wrQLenPdf::8                         1                       # What write queue length does an incoming req see
system.physmem.wrQLenPdf::9                         1                       # What write queue length does an incoming req see
system.physmem.wrQLenPdf::10                        1                       # What write queue length does an incoming req see
system.physmem.wrQLenPdf::11                        1                       # What write queue length does an incoming req see
system.physmem.wrQLenPdf::12                        1                       # What write queue length does an incoming req see
system.physmem.wrQLenPdf::13                        1                       # What write queue length does an incoming req see
system.physmem.wrQLenPdf::14                        1                       # What write queue length does an incoming req see
system.physmem.wrQLenPdf::15                     2909                       # What write queue length does an incoming req see
system.physmem.wrQLenPdf::16                     4636                       # What write queue length does an incoming req see
system.physmem.wrQLenPdf::17                     6298                       # What write queue length does an incoming req see
system.physmem.wrQLenPdf::18                     8259                       # What write queue length does an incoming req see
system.physmem.wrQLenPdf::19                     9096                       # What write queue length does an incoming req see
system.physmem.wrQLenPdf::20                    10239                       # What write queue length does an incoming req see
system.physmem.wrQLenPdf::21                    10826                       # What write queue length does an incoming req see
system.physmem.wrQLenPdf::22                    11796                       # What write queue length does an incoming req see
system.physmem.wrQLenPdf::23                    11771                       # What write queue length does an incoming req see
system.physmem.wrQLenPdf::24                    12530                       # What write queue length does an incoming req see
system.physmem.wrQLenPdf::25                    11837                       # What write queue length does an incoming req see
system.physmem.wrQLenPdf::26                    11533                       # What write queue length does an incoming req see
system.physmem.wrQLenPdf::27                    10810                       # What write queue length does an incoming req see
system.physmem.wrQLenPdf::28                    10665                       # What write queue length does an incoming req see
system.physmem.wrQLenPdf::29                     8741                       # What write queue length does an incoming req see
system.physmem.wrQLenPdf::30                     8334                       # What write queue length does an incoming req see
system.physmem.wrQLenPdf::31                     8094                       # What write queue length does an incoming req see
system.physmem.wrQLenPdf::32                     7730                       # What write queue length does an incoming req see
system.physmem.wrQLenPdf::33                      533                       # What write queue length does an incoming req see
system.physmem.wrQLenPdf::34                      391                       # What write queue length does an incoming req see
system.physmem.wrQLenPdf::35                      344                       # What write queue length does an incoming req see
system.physmem.wrQLenPdf::36                      288                       # What write queue length does an incoming req see
system.physmem.wrQLenPdf::37                      237                       # What write queue length does an incoming req see
system.physmem.wrQLenPdf::38                      218                       # What write queue length does an incoming req see
system.physmem.wrQLenPdf::39                      213                       # What write queue length does an incoming req see
system.physmem.wrQLenPdf::40                      197                       # What write queue length does an incoming req see
system.physmem.wrQLenPdf::41                      169                       # What write queue length does an incoming req see
system.physmem.wrQLenPdf::42                      169                       # What write queue length does an incoming req see
system.physmem.wrQLenPdf::43                      151                       # What write queue length does an incoming req see
system.physmem.wrQLenPdf::44                      144                       # What write queue length does an incoming req see
system.physmem.wrQLenPdf::45                      133                       # What write queue length does an incoming req see
system.physmem.wrQLenPdf::46                      120                       # What write queue length does an incoming req see
system.physmem.wrQLenPdf::47                      110                       # What write queue length does an incoming req see
system.physmem.wrQLenPdf::48                      106                       # What write queue length does an incoming req see
system.physmem.wrQLenPdf::49                      107                       # What write queue length does an incoming req see
system.physmem.wrQLenPdf::50                       93                       # What write queue length does an incoming req see
system.physmem.wrQLenPdf::51                       83                       # What write queue length does an incoming req see
system.physmem.wrQLenPdf::52                       65                       # What write queue length does an incoming req see
system.physmem.wrQLenPdf::53                       60                       # What write queue length does an incoming req see
system.physmem.wrQLenPdf::54                       46                       # What write queue length does an incoming req see
system.physmem.wrQLenPdf::55                       26                       # What write queue length does an incoming req see
system.physmem.wrQLenPdf::56                       22                       # What write queue length does an incoming req see
system.physmem.wrQLenPdf::57                       23                       # What write queue length does an incoming req see
system.physmem.wrQLenPdf::58                       15                       # What write queue length does an incoming req see
system.physmem.wrQLenPdf::59                       13                       # What write queue length does an incoming req see
system.physmem.wrQLenPdf::60                        8                       # What write queue length does an incoming req see
system.physmem.wrQLenPdf::61                        5                       # What write queue length does an incoming req see
system.physmem.wrQLenPdf::62                        4                       # What write queue length does an incoming req see
system.physmem.wrQLenPdf::63                        2                       # What write queue length does an incoming req see
system.physmem.bytesPerActivate::samples        90415                       # Bytes accessed per row activation
system.physmem.bytesPerActivate::mean      262.086778                       # Bytes accessed per row activation
system.physmem.bytesPerActivate::gmean     144.561031                       # Bytes accessed per row activation
system.physmem.bytesPerActivate::stdev     323.181928                       # Bytes accessed per row activation
system.physmem.bytesPerActivate::0-127          46335     51.25%     51.25% # Bytes accessed per row activation
system.physmem.bytesPerActivate::128-255        17813     19.70%     70.95% # Bytes accessed per row activation
system.physmem.bytesPerActivate::256-383         6067      6.71%     77.66% # Bytes accessed per row activation
system.physmem.bytesPerActivate::384-511         3600      3.98%     81.64% # Bytes accessed per row activation
system.physmem.bytesPerActivate::512-639         2534      2.80%     84.44% # Bytes accessed per row activation
system.physmem.bytesPerActivate::640-767         1568      1.73%     86.18% # Bytes accessed per row activation
system.physmem.bytesPerActivate::768-895         1031      1.14%     87.32% # Bytes accessed per row activation
system.physmem.bytesPerActivate::896-1023          985      1.09%     88.41% # Bytes accessed per row activation
system.physmem.bytesPerActivate::1024-1151        10482     11.59%    100.00% # Bytes accessed per row activation
system.physmem.bytesPerActivate::total          90415                       # Bytes accessed per row activation
system.physmem.rdPerTurnAround::samples          7120                       # Reads before turning the bus around for writes
system.physmem.rdPerTurnAround::mean        28.098736                       # Reads before turning the bus around for writes
system.physmem.rdPerTurnAround::stdev      516.724228                       # Reads before turning the bus around for writes
system.physmem.rdPerTurnAround::0-2047           7117     99.96%     99.96% # Reads before turning the bus around for writes
system.physmem.rdPerTurnAround::2048-4095            2      0.03%     99.99% # Reads before turning the bus around for writes
system.physmem.rdPerTurnAround::43008-45055            1      0.01%    100.00% # Reads before turning the bus around for writes
system.physmem.rdPerTurnAround::total            7120                       # Reads before turning the bus around for writes
system.physmem.wrPerTurnAround::samples          7120                       # Writes before turning the bus around for reads
system.physmem.wrPerTurnAround::mean        23.903933                       # Writes before turning the bus around for reads
system.physmem.wrPerTurnAround::gmean       20.122109                       # Writes before turning the bus around for reads
system.physmem.wrPerTurnAround::stdev       22.073987                       # Writes before turning the bus around for reads
system.physmem.wrPerTurnAround::16-19            5764     80.96%     80.96% # Writes before turning the bus around for reads
system.physmem.wrPerTurnAround::20-23             237      3.33%     84.28% # Writes before turning the bus around for reads
system.physmem.wrPerTurnAround::24-27              43      0.60%     84.89% # Writes before turning the bus around for reads
system.physmem.wrPerTurnAround::28-31             234      3.29%     88.17% # Writes before turning the bus around for reads
system.physmem.wrPerTurnAround::32-35             121      1.70%     89.87% # Writes before turning the bus around for reads
system.physmem.wrPerTurnAround::36-39              62      0.87%     90.74% # Writes before turning the bus around for reads
system.physmem.wrPerTurnAround::40-43              31      0.44%     91.18% # Writes before turning the bus around for reads
system.physmem.wrPerTurnAround::44-47              36      0.51%     91.69% # Writes before turning the bus around for reads
system.physmem.wrPerTurnAround::48-51             117      1.64%     93.33% # Writes before turning the bus around for reads
system.physmem.wrPerTurnAround::52-55              18      0.25%     93.58% # Writes before turning the bus around for reads
system.physmem.wrPerTurnAround::56-59              25      0.35%     93.93% # Writes before turning the bus around for reads
system.physmem.wrPerTurnAround::60-63              16      0.22%     94.16% # Writes before turning the bus around for reads
system.physmem.wrPerTurnAround::64-67              40      0.56%     94.72% # Writes before turning the bus around for reads
system.physmem.wrPerTurnAround::68-71              10      0.14%     94.86% # Writes before turning the bus around for reads
system.physmem.wrPerTurnAround::72-75              17      0.24%     95.10% # Writes before turning the bus around for reads
system.physmem.wrPerTurnAround::76-79              28      0.39%     95.49% # Writes before turning the bus around for reads
system.physmem.wrPerTurnAround::80-83              58      0.81%     96.31% # Writes before turning the bus around for reads
system.physmem.wrPerTurnAround::84-87              14      0.20%     96.50% # Writes before turning the bus around for reads
system.physmem.wrPerTurnAround::88-91               7      0.10%     96.60% # Writes before turning the bus around for reads
system.physmem.wrPerTurnAround::92-95               6      0.08%     96.69% # Writes before turning the bus around for reads
system.physmem.wrPerTurnAround::96-99              88      1.24%     97.92% # Writes before turning the bus around for reads
system.physmem.wrPerTurnAround::100-103             4      0.06%     97.98% # Writes before turning the bus around for reads
system.physmem.wrPerTurnAround::104-107            12      0.17%     98.15% # Writes before turning the bus around for reads
system.physmem.wrPerTurnAround::108-111             1      0.01%     98.16% # Writes before turning the bus around for reads
system.physmem.wrPerTurnAround::112-115            15      0.21%     98.37% # Writes before turning the bus around for reads
system.physmem.wrPerTurnAround::116-119             6      0.08%     98.46% # Writes before turning the bus around for reads
system.physmem.wrPerTurnAround::120-123            14      0.20%     98.65% # Writes before turning the bus around for reads
system.physmem.wrPerTurnAround::124-127             9      0.13%     98.78% # Writes before turning the bus around for reads
system.physmem.wrPerTurnAround::128-131            35      0.49%     99.27% # Writes before turning the bus around for reads
system.physmem.wrPerTurnAround::132-135             6      0.08%     99.35% # Writes before turning the bus around for reads
system.physmem.wrPerTurnAround::136-139             1      0.01%     99.37% # Writes before turning the bus around for reads
system.physmem.wrPerTurnAround::140-143             4      0.06%     99.42% # Writes before turning the bus around for reads
system.physmem.wrPerTurnAround::144-147             8      0.11%     99.54% # Writes before turning the bus around for reads
system.physmem.wrPerTurnAround::148-151             2      0.03%     99.56% # Writes before turning the bus around for reads
system.physmem.wrPerTurnAround::152-155             3      0.04%     99.61% # Writes before turning the bus around for reads
system.physmem.wrPerTurnAround::156-159             1      0.01%     99.62% # Writes before turning the bus around for reads
system.physmem.wrPerTurnAround::160-163             8      0.11%     99.73% # Writes before turning the bus around for reads
system.physmem.wrPerTurnAround::164-167             2      0.03%     99.76% # Writes before turning the bus around for reads
system.physmem.wrPerTurnAround::168-171             1      0.01%     99.78% # Writes before turning the bus around for reads
system.physmem.wrPerTurnAround::172-175             1      0.01%     99.79% # Writes before turning the bus around for reads
system.physmem.wrPerTurnAround::176-179             4      0.06%     99.85% # Writes before turning the bus around for reads
system.physmem.wrPerTurnAround::180-183             1      0.01%     99.86% # Writes before turning the bus around for reads
system.physmem.wrPerTurnAround::184-187             1      0.01%     99.87% # Writes before turning the bus around for reads
system.physmem.wrPerTurnAround::196-199             1      0.01%     99.89% # Writes before turning the bus around for reads
system.physmem.wrPerTurnAround::200-203             1      0.01%     99.90% # Writes before turning the bus around for reads
system.physmem.wrPerTurnAround::208-211             1      0.01%     99.92% # Writes before turning the bus around for reads
system.physmem.wrPerTurnAround::224-227             3      0.04%     99.96% # Writes before turning the bus around for reads
system.physmem.wrPerTurnAround::228-231             3      0.04%    100.00% # Writes before turning the bus around for reads
system.physmem.wrPerTurnAround::total            7120                       # Writes before turning the bus around for reads
system.physmem.totQLat                     4855930250                       # Total ticks spent queuing
system.physmem.totMemAccLat                8607130250                       # Total ticks spent from burst creation until serviced by the DRAM
system.physmem.totBusLat                   1000320000                       # Total ticks spent in databus transfers
system.physmem.avgQLat                       24271.88                       # Average queueing delay per DRAM burst
system.physmem.avgBusLat                      5000.00                       # Average bus latency per DRAM burst
system.physmem.avgMemAccLat                  43021.88                       # Average memory access latency per DRAM burst
system.physmem.avgRdBW                           4.46                       # Average DRAM read bandwidth in MiByte/s
system.physmem.avgWrBW                           3.80                       # Average achieved write bandwidth in MiByte/s
system.physmem.avgRdBWSys                        4.26                       # Average system read bandwidth in MiByte/s
system.physmem.avgWrBWSys                        3.83                       # Average system write bandwidth in MiByte/s
system.physmem.peakBW                        12800.00                       # Theoretical peak bandwidth in MiByte/s
system.physmem.busUtil                           0.06                       # Data bus utilization in percentage
system.physmem.busUtilRead                       0.03                       # Data bus utilization in percentage for reads
system.physmem.busUtilWrite                      0.03                       # Data bus utilization in percentage for writes
system.physmem.avgRdQLen                         1.07                       # Average read queue length when enqueuing
system.physmem.avgWrQLen                        22.69                       # Average write queue length when enqueuing
system.physmem.readRowHits                     167229                       # Number of row buffer hits during reads
system.physmem.writeRowHits                    112615                       # Number of row buffer hits during writes
system.physmem.readRowHitRate                   83.59                       # Row buffer hit rate for reads
system.physmem.writeRowHitRate                  66.16                       # Row buffer hit rate for writes
system.physmem.avgGap                      7626497.96                       # Average gap between requests
system.physmem.pageHitRate                      75.58                       # Row buffer hit rate, read and write combined
system.physmem_0.actEnergy                  354707640                       # Energy for activate commands per rank (pJ)
system.physmem_0.preEnergy                  193540875                       # Energy for precharge commands per rank (pJ)
system.physmem_0.readEnergy                 832845000                       # Energy for read commands per rank (pJ)
system.physmem_0.writeEnergy                568613520                       # Energy for write commands per rank (pJ)
system.physmem_0.refreshEnergy           187344349920                       # Energy for refresh commands per rank (pJ)
system.physmem_0.actBackEnergy            84727272375                       # Energy for active background per rank (pJ)
system.physmem_0.preBackEnergy           1646666587500                       # Energy for precharge background per rank (pJ)
system.physmem_0.totalEnergy             1920687916830                       # Total energy per rank (pJ)
system.physmem_0.averagePower              669.622475                       # Core power per rank (mW)
system.physmem_0.memoryStateTime::IDLE   2739235632500                       # Time in different power states
system.physmem_0.memoryStateTime::REF     95779320000                       # Time in different power states
system.physmem_0.memoryStateTime::PRE_PDN            0                       # Time in different power states
system.physmem_0.memoryStateTime::ACT     33303656000                       # Time in different power states
system.physmem_0.memoryStateTime::ACT_PDN            0                       # Time in different power states
system.physmem_1.actEnergy                  328829760                       # Energy for activate commands per rank (pJ)
system.physmem_1.preEnergy                  179421000                       # Energy for precharge commands per rank (pJ)
system.physmem_1.readEnergy                 727646400                       # Energy for read commands per rank (pJ)
system.physmem_1.writeEnergy                534256560                       # Energy for write commands per rank (pJ)
system.physmem_1.refreshEnergy           187344349920                       # Energy for refresh commands per rank (pJ)
system.physmem_1.actBackEnergy            83962556955                       # Energy for active background per rank (pJ)
system.physmem_1.preBackEnergy           1647337390500                       # Energy for precharge background per rank (pJ)
system.physmem_1.totalEnergy             1920414451095                       # Total energy per rank (pJ)
system.physmem_1.averagePower              669.527135                       # Core power per rank (mW)
system.physmem_1.memoryStateTime::IDLE   2740355751000                       # Time in different power states
system.physmem_1.memoryStateTime::REF     95779320000                       # Time in different power states
system.physmem_1.memoryStateTime::PRE_PDN            0                       # Time in different power states
system.physmem_1.memoryStateTime::ACT     32179536500                       # Time in different power states
system.physmem_1.memoryStateTime::ACT_PDN            0                       # Time in different power states
system.realview.nvmem.bytes_read::cpu0.inst           20                       # Number of bytes read from this memory
system.realview.nvmem.bytes_read::cpu1.inst           48                       # Number of bytes read from this memory
system.realview.nvmem.bytes_read::total            68                       # Number of bytes read from this memory
system.realview.nvmem.bytes_inst_read::cpu0.inst           20                       # Number of instructions bytes read from this memory
system.realview.nvmem.bytes_inst_read::cpu1.inst           48                       # Number of instructions bytes read from this memory
system.realview.nvmem.bytes_inst_read::total           68                       # Number of instructions bytes read from this memory
system.realview.nvmem.num_reads::cpu0.inst            5                       # Number of read requests responded to by this memory
system.realview.nvmem.num_reads::cpu1.inst           12                       # Number of read requests responded to by this memory
system.realview.nvmem.num_reads::total             17                       # Number of read requests responded to by this memory
system.realview.nvmem.bw_read::cpu0.inst            7                       # Total read bandwidth from this memory (bytes/s)
system.realview.nvmem.bw_read::cpu1.inst           17                       # Total read bandwidth from this memory (bytes/s)
system.realview.nvmem.bw_read::total               24                       # Total read bandwidth from this memory (bytes/s)
system.realview.nvmem.bw_inst_read::cpu0.inst            7                       # Instruction read bandwidth from this memory (bytes/s)
system.realview.nvmem.bw_inst_read::cpu1.inst           17                       # Instruction read bandwidth from this memory (bytes/s)
system.realview.nvmem.bw_inst_read::total           24                       # Instruction read bandwidth from this memory (bytes/s)
system.realview.nvmem.bw_total::cpu0.inst            7                       # Total bandwidth to/from this memory (bytes/s)
system.realview.nvmem.bw_total::cpu1.inst           17                       # Total bandwidth to/from this memory (bytes/s)
system.realview.nvmem.bw_total::total              24                       # Total bandwidth to/from this memory (bytes/s)
system.cf0.dma_read_full_pages                      0                       # Number of full page size DMA reads (not PRD).
system.cf0.dma_read_bytes                        1024                       # Number of bytes transfered via DMA reads (not PRD).
system.cf0.dma_read_txs                             1                       # Number of DMA read transactions (not PRD).
system.cf0.dma_write_full_pages                   540                       # Number of full page size DMA writes.
system.cf0.dma_write_bytes                    2318336                       # Number of bytes transfered via DMA writes.
system.cf0.dma_write_txs                          631                       # Number of DMA write transactions.
system.cpu_clk_domain.clock                       500                       # Clock period in ticks
system.cpu0.dstage2_mmu.stage2_tlb.walker.walks            0                       # Table walker walks requested
system.cpu0.dstage2_mmu.stage2_tlb.walker.walkRequestOrigin_Requested::Data            0                       # Table walker requests started/completed, data/inst
system.cpu0.dstage2_mmu.stage2_tlb.walker.walkRequestOrigin_Requested::Inst            0                       # Table walker requests started/completed, data/inst
system.cpu0.dstage2_mmu.stage2_tlb.walker.walkRequestOrigin_Requested::total            0                       # Table walker requests started/completed, data/inst
system.cpu0.dstage2_mmu.stage2_tlb.walker.walkRequestOrigin_Completed::Data            0                       # Table walker requests started/completed, data/inst
system.cpu0.dstage2_mmu.stage2_tlb.walker.walkRequestOrigin_Completed::Inst            0                       # Table walker requests started/completed, data/inst
system.cpu0.dstage2_mmu.stage2_tlb.walker.walkRequestOrigin_Completed::total            0                       # Table walker requests started/completed, data/inst
system.cpu0.dstage2_mmu.stage2_tlb.walker.walkRequestOrigin::total            0                       # Table walker requests started/completed, data/inst
system.cpu0.dstage2_mmu.stage2_tlb.inst_hits            0                       # ITB inst hits
system.cpu0.dstage2_mmu.stage2_tlb.inst_misses            0                       # ITB inst misses
system.cpu0.dstage2_mmu.stage2_tlb.read_hits            0                       # DTB read hits
system.cpu0.dstage2_mmu.stage2_tlb.read_misses            0                       # DTB read misses
system.cpu0.dstage2_mmu.stage2_tlb.write_hits            0                       # DTB write hits
system.cpu0.dstage2_mmu.stage2_tlb.write_misses            0                       # DTB write misses
system.cpu0.dstage2_mmu.stage2_tlb.flush_tlb            0                       # Number of times complete TLB was flushed
system.cpu0.dstage2_mmu.stage2_tlb.flush_tlb_mva            0                       # Number of times TLB was flushed by MVA
system.cpu0.dstage2_mmu.stage2_tlb.flush_tlb_mva_asid            0                       # Number of times TLB was flushed by MVA & ASID
system.cpu0.dstage2_mmu.stage2_tlb.flush_tlb_asid            0                       # Number of times TLB was flushed by ASID
system.cpu0.dstage2_mmu.stage2_tlb.flush_entries            0                       # Number of entries that have been flushed from TLB
system.cpu0.dstage2_mmu.stage2_tlb.align_faults            0                       # Number of TLB faults due to alignment restrictions
system.cpu0.dstage2_mmu.stage2_tlb.prefetch_faults            0                       # Number of TLB faults due to prefetch
system.cpu0.dstage2_mmu.stage2_tlb.domain_faults            0                       # Number of TLB faults due to domain restrictions
system.cpu0.dstage2_mmu.stage2_tlb.perms_faults            0                       # Number of TLB faults due to permissions restrictions
system.cpu0.dstage2_mmu.stage2_tlb.read_accesses            0                       # DTB read accesses
system.cpu0.dstage2_mmu.stage2_tlb.write_accesses            0                       # DTB write accesses
system.cpu0.dstage2_mmu.stage2_tlb.inst_accesses            0                       # ITB inst accesses
system.cpu0.dstage2_mmu.stage2_tlb.hits             0                       # DTB hits
system.cpu0.dstage2_mmu.stage2_tlb.misses            0                       # DTB misses
system.cpu0.dstage2_mmu.stage2_tlb.accesses            0                       # DTB accesses
system.cpu0.dtb.walker.walks                     7749                       # Table walker walks requested
system.cpu0.dtb.walker.walksShort                7749                       # Table walker walks initiated with short descriptors
system.cpu0.dtb.walker.walksShortTerminationLevel::Level1         1459                       # Level at which table walker walks with short descriptors terminate
system.cpu0.dtb.walker.walksShortTerminationLevel::Level2         6290                       # Level at which table walker walks with short descriptors terminate
system.cpu0.dtb.walker.walkWaitTime::samples         7749                       # Table walker wait (enqueue to first request) latency
system.cpu0.dtb.walker.walkWaitTime::0           7749    100.00%    100.00% # Table walker wait (enqueue to first request) latency
system.cpu0.dtb.walker.walkWaitTime::total         7749                       # Table walker wait (enqueue to first request) latency
system.cpu0.dtb.walker.walkCompletionTime::samples         6355                       # Table walker service (enqueue to completion) latency
system.cpu0.dtb.walker.walkCompletionTime::mean  8363.375452                       # Table walker service (enqueue to completion) latency
system.cpu0.dtb.walker.walkCompletionTime::gmean  7097.000757                       # Table walker service (enqueue to completion) latency
system.cpu0.dtb.walker.walkCompletionTime::stdev  5454.838397                       # Table walker service (enqueue to completion) latency
system.cpu0.dtb.walker.walkCompletionTime::0-16383         6203     97.61%     97.61% # Table walker service (enqueue to completion) latency
system.cpu0.dtb.walker.walkCompletionTime::16384-32767          142      2.23%     99.84% # Table walker service (enqueue to completion) latency
system.cpu0.dtb.walker.walkCompletionTime::32768-49151            6      0.09%     99.94% # Table walker service (enqueue to completion) latency
system.cpu0.dtb.walker.walkCompletionTime::81920-98303            3      0.05%     99.98% # Table walker service (enqueue to completion) latency
system.cpu0.dtb.walker.walkCompletionTime::180224-196607            1      0.02%    100.00% # Table walker service (enqueue to completion) latency
system.cpu0.dtb.walker.walkCompletionTime::total         6355                       # Table walker service (enqueue to completion) latency
system.cpu0.dtb.walker.walksPending::samples    987959000                       # Table walker pending requests distribution
system.cpu0.dtb.walker.walksPending::0      987959000    100.00%    100.00% # Table walker pending requests distribution
system.cpu0.dtb.walker.walksPending::total    987959000                       # Table walker pending requests distribution
system.cpu0.dtb.walker.walkPageSizes::4K         4935     77.66%     77.66% # Table walker page sizes translated
system.cpu0.dtb.walker.walkPageSizes::1M         1420     22.34%    100.00% # Table walker page sizes translated
system.cpu0.dtb.walker.walkPageSizes::total         6355                       # Table walker page sizes translated
system.cpu0.dtb.walker.walkRequestOrigin_Requested::Data         7749                       # Table walker requests started/completed, data/inst
system.cpu0.dtb.walker.walkRequestOrigin_Requested::Inst            0                       # Table walker requests started/completed, data/inst
system.cpu0.dtb.walker.walkRequestOrigin_Requested::total         7749                       # Table walker requests started/completed, data/inst
system.cpu0.dtb.walker.walkRequestOrigin_Completed::Data         6355                       # Table walker requests started/completed, data/inst
system.cpu0.dtb.walker.walkRequestOrigin_Completed::Inst            0                       # Table walker requests started/completed, data/inst
system.cpu0.dtb.walker.walkRequestOrigin_Completed::total         6355                       # Table walker requests started/completed, data/inst
system.cpu0.dtb.walker.walkRequestOrigin::total        14104                       # Table walker requests started/completed, data/inst
system.cpu0.dtb.inst_hits                           0                       # ITB inst hits
system.cpu0.dtb.inst_misses                         0                       # ITB inst misses
system.cpu0.dtb.read_hits                    19044092                       # DTB read hits
system.cpu0.dtb.read_misses                      6608                       # DTB read misses
system.cpu0.dtb.write_hits                   15688894                       # DTB write hits
system.cpu0.dtb.write_misses                     1141                       # DTB write misses
system.cpu0.dtb.flush_tlb                          66                       # Number of times complete TLB was flushed
system.cpu0.dtb.flush_tlb_mva                     917                       # Number of times TLB was flushed by MVA
system.cpu0.dtb.flush_tlb_mva_asid                  0                       # Number of times TLB was flushed by MVA & ASID
system.cpu0.dtb.flush_tlb_asid                      0                       # Number of times TLB was flushed by ASID
system.cpu0.dtb.flush_entries                    3442                       # Number of entries that have been flushed from TLB
system.cpu0.dtb.align_faults                        0                       # Number of TLB faults due to alignment restrictions
system.cpu0.dtb.prefetch_faults                  1734                       # Number of TLB faults due to prefetch
system.cpu0.dtb.domain_faults                       0                       # Number of TLB faults due to domain restrictions
system.cpu0.dtb.perms_faults                      282                       # Number of TLB faults due to permissions restrictions
system.cpu0.dtb.read_accesses                19050700                       # DTB read accesses
system.cpu0.dtb.write_accesses               15690035                       # DTB write accesses
system.cpu0.dtb.inst_accesses                       0                       # ITB inst accesses
system.cpu0.dtb.hits                         34732986                       # DTB hits
system.cpu0.dtb.misses                           7749                       # DTB misses
system.cpu0.dtb.accesses                     34740735                       # DTB accesses
system.cpu0.istage2_mmu.stage2_tlb.walker.walks            0                       # Table walker walks requested
system.cpu0.istage2_mmu.stage2_tlb.walker.walkRequestOrigin_Requested::Data            0                       # Table walker requests started/completed, data/inst
system.cpu0.istage2_mmu.stage2_tlb.walker.walkRequestOrigin_Requested::Inst            0                       # Table walker requests started/completed, data/inst
system.cpu0.istage2_mmu.stage2_tlb.walker.walkRequestOrigin_Requested::total            0                       # Table walker requests started/completed, data/inst
system.cpu0.istage2_mmu.stage2_tlb.walker.walkRequestOrigin_Completed::Data            0                       # Table walker requests started/completed, data/inst
system.cpu0.istage2_mmu.stage2_tlb.walker.walkRequestOrigin_Completed::Inst            0                       # Table walker requests started/completed, data/inst
system.cpu0.istage2_mmu.stage2_tlb.walker.walkRequestOrigin_Completed::total            0                       # Table walker requests started/completed, data/inst
system.cpu0.istage2_mmu.stage2_tlb.walker.walkRequestOrigin::total            0                       # Table walker requests started/completed, data/inst
system.cpu0.istage2_mmu.stage2_tlb.inst_hits            0                       # ITB inst hits
system.cpu0.istage2_mmu.stage2_tlb.inst_misses            0                       # ITB inst misses
system.cpu0.istage2_mmu.stage2_tlb.read_hits            0                       # DTB read hits
system.cpu0.istage2_mmu.stage2_tlb.read_misses            0                       # DTB read misses
system.cpu0.istage2_mmu.stage2_tlb.write_hits            0                       # DTB write hits
system.cpu0.istage2_mmu.stage2_tlb.write_misses            0                       # DTB write misses
system.cpu0.istage2_mmu.stage2_tlb.flush_tlb            0                       # Number of times complete TLB was flushed
system.cpu0.istage2_mmu.stage2_tlb.flush_tlb_mva            0                       # Number of times TLB was flushed by MVA
system.cpu0.istage2_mmu.stage2_tlb.flush_tlb_mva_asid            0                       # Number of times TLB was flushed by MVA & ASID
system.cpu0.istage2_mmu.stage2_tlb.flush_tlb_asid            0                       # Number of times TLB was flushed by ASID
system.cpu0.istage2_mmu.stage2_tlb.flush_entries            0                       # Number of entries that have been flushed from TLB
system.cpu0.istage2_mmu.stage2_tlb.align_faults            0                       # Number of TLB faults due to alignment restrictions
system.cpu0.istage2_mmu.stage2_tlb.prefetch_faults            0                       # Number of TLB faults due to prefetch
system.cpu0.istage2_mmu.stage2_tlb.domain_faults            0                       # Number of TLB faults due to domain restrictions
system.cpu0.istage2_mmu.stage2_tlb.perms_faults            0                       # Number of TLB faults due to permissions restrictions
system.cpu0.istage2_mmu.stage2_tlb.read_accesses            0                       # DTB read accesses
system.cpu0.istage2_mmu.stage2_tlb.write_accesses            0                       # DTB write accesses
system.cpu0.istage2_mmu.stage2_tlb.inst_accesses            0                       # ITB inst accesses
system.cpu0.istage2_mmu.stage2_tlb.hits             0                       # DTB hits
system.cpu0.istage2_mmu.stage2_tlb.misses            0                       # DTB misses
system.cpu0.istage2_mmu.stage2_tlb.accesses            0                       # DTB accesses
system.cpu0.itb.walker.walks                     3348                       # Table walker walks requested
system.cpu0.itb.walker.walksShort                3348                       # Table walker walks initiated with short descriptors
system.cpu0.itb.walker.walksShortTerminationLevel::Level1          298                       # Level at which table walker walks with short descriptors terminate
system.cpu0.itb.walker.walksShortTerminationLevel::Level2         3050                       # Level at which table walker walks with short descriptors terminate
system.cpu0.itb.walker.walkWaitTime::samples         3348                       # Table walker wait (enqueue to first request) latency
system.cpu0.itb.walker.walkWaitTime::0           3348    100.00%    100.00% # Table walker wait (enqueue to first request) latency
system.cpu0.itb.walker.walkWaitTime::total         3348                       # Table walker wait (enqueue to first request) latency
system.cpu0.itb.walker.walkCompletionTime::samples         2332                       # Table walker service (enqueue to completion) latency
system.cpu0.itb.walker.walkCompletionTime::mean  8781.732419                       # Table walker service (enqueue to completion) latency
system.cpu0.itb.walker.walkCompletionTime::gmean  7396.194245                       # Table walker service (enqueue to completion) latency
system.cpu0.itb.walker.walkCompletionTime::stdev  5559.104899                       # Table walker service (enqueue to completion) latency
system.cpu0.itb.walker.walkCompletionTime::0-8191         1469     62.99%     62.99% # Table walker service (enqueue to completion) latency
system.cpu0.itb.walker.walkCompletionTime::8192-16383          817     35.03%     98.03% # Table walker service (enqueue to completion) latency
system.cpu0.itb.walker.walkCompletionTime::16384-24575            4      0.17%     98.20% # Table walker service (enqueue to completion) latency
system.cpu0.itb.walker.walkCompletionTime::24576-32767           39      1.67%     99.87% # Table walker service (enqueue to completion) latency
system.cpu0.itb.walker.walkCompletionTime::40960-49151            1      0.04%     99.91% # Table walker service (enqueue to completion) latency
system.cpu0.itb.walker.walkCompletionTime::81920-90111            1      0.04%     99.96% # Table walker service (enqueue to completion) latency
system.cpu0.itb.walker.walkCompletionTime::106496-114687            1      0.04%    100.00% # Table walker service (enqueue to completion) latency
system.cpu0.itb.walker.walkCompletionTime::total         2332                       # Table walker service (enqueue to completion) latency
system.cpu0.itb.walker.walksPending::samples    987617000                       # Table walker pending requests distribution
system.cpu0.itb.walker.walksPending::0      987617000    100.00%    100.00% # Table walker pending requests distribution
system.cpu0.itb.walker.walksPending::total    987617000                       # Table walker pending requests distribution
system.cpu0.itb.walker.walkPageSizes::4K         2034     87.22%     87.22% # Table walker page sizes translated
system.cpu0.itb.walker.walkPageSizes::1M          298     12.78%    100.00% # Table walker page sizes translated
system.cpu0.itb.walker.walkPageSizes::total         2332                       # Table walker page sizes translated
system.cpu0.itb.walker.walkRequestOrigin_Requested::Data            0                       # Table walker requests started/completed, data/inst
system.cpu0.itb.walker.walkRequestOrigin_Requested::Inst         3348                       # Table walker requests started/completed, data/inst
system.cpu0.itb.walker.walkRequestOrigin_Requested::total         3348                       # Table walker requests started/completed, data/inst
system.cpu0.itb.walker.walkRequestOrigin_Completed::Data            0                       # Table walker requests started/completed, data/inst
system.cpu0.itb.walker.walkRequestOrigin_Completed::Inst         2332                       # Table walker requests started/completed, data/inst
system.cpu0.itb.walker.walkRequestOrigin_Completed::total         2332                       # Table walker requests started/completed, data/inst
system.cpu0.itb.walker.walkRequestOrigin::total         5680                       # Table walker requests started/completed, data/inst
system.cpu0.itb.inst_hits                    91510827                       # ITB inst hits
system.cpu0.itb.inst_misses                      3348                       # ITB inst misses
system.cpu0.itb.read_hits                           0                       # DTB read hits
system.cpu0.itb.read_misses                         0                       # DTB read misses
system.cpu0.itb.write_hits                          0                       # DTB write hits
system.cpu0.itb.write_misses                        0                       # DTB write misses
system.cpu0.itb.flush_tlb                          66                       # Number of times complete TLB was flushed
system.cpu0.itb.flush_tlb_mva                     917                       # Number of times TLB was flushed by MVA
system.cpu0.itb.flush_tlb_mva_asid                  0                       # Number of times TLB was flushed by MVA & ASID
system.cpu0.itb.flush_tlb_asid                      0                       # Number of times TLB was flushed by ASID
system.cpu0.itb.flush_entries                    2150                       # Number of entries that have been flushed from TLB
system.cpu0.itb.align_faults                        0                       # Number of TLB faults due to alignment restrictions
system.cpu0.itb.prefetch_faults                     0                       # Number of TLB faults due to prefetch
system.cpu0.itb.domain_faults                       0                       # Number of TLB faults due to domain restrictions
system.cpu0.itb.perms_faults                        0                       # Number of TLB faults due to permissions restrictions
system.cpu0.itb.read_accesses                       0                       # DTB read accesses
system.cpu0.itb.write_accesses                      0                       # DTB write accesses
system.cpu0.itb.inst_accesses                91514175                       # ITB inst accesses
system.cpu0.itb.hits                         91510827                       # DTB hits
system.cpu0.itb.misses                           3348                       # DTB misses
system.cpu0.itb.accesses                     91514175                       # DTB accesses
system.cpu0.numCycles                      5736637393                       # number of cpu cycles simulated
system.cpu0.numWorkItemsStarted                     0                       # number of work items this cpu started
system.cpu0.numWorkItemsCompleted                   0                       # number of work items this cpu completed
system.cpu0.committedInsts                   89363678                       # Number of instructions committed
system.cpu0.committedOps                    107297883                       # Number of ops (including micro ops) committed
system.cpu0.num_int_alu_accesses             94350928                       # Number of integer alu accesses
system.cpu0.num_fp_alu_accesses                  9820                       # Number of float alu accesses
system.cpu0.num_func_calls                    6606472                       # number of times a function call or return occured
system.cpu0.num_conditional_control_insts     12627044                       # number of instructions that are conditional controls
system.cpu0.num_int_insts                    94350928                       # number of integer instructions
system.cpu0.num_fp_insts                         9820                       # number of float instructions
system.cpu0.num_int_register_reads          169124164                       # number of times the integer registers were read
system.cpu0.num_int_register_writes          64348180                       # number of times the integer registers were written
system.cpu0.num_fp_register_reads                7560                       # number of times the floating registers were read
system.cpu0.num_fp_register_writes               2264                       # number of times the floating registers were written
system.cpu0.num_cc_register_reads           385798415                       # number of times the CC registers were read
system.cpu0.num_cc_register_writes           43074064                       # number of times the CC registers were written
system.cpu0.num_mem_refs                     35866705                       # number of memory refs
system.cpu0.num_load_insts                   19295047                       # Number of load instructions
system.cpu0.num_store_insts                  16571658                       # Number of store instructions
system.cpu0.num_idle_cycles              5512519658.266078                       # Number of idle cycles
system.cpu0.num_busy_cycles              224117734.733922                       # Number of busy cycles
system.cpu0.not_idle_fraction                0.039068                       # Percentage of non-idle cycles
system.cpu0.idle_fraction                    0.960932                       # Percentage of idle cycles
system.cpu0.Branches                         19970568                       # Number of branches fetched
system.cpu0.op_class::No_OpClass                 2273      0.00%      0.00% # Class of executed instruction
system.cpu0.op_class::IntAlu                 73557669     67.15%     67.15% # Class of executed instruction
system.cpu0.op_class::IntMult                  108302      0.10%     67.25% # Class of executed instruction
system.cpu0.op_class::IntDiv                        0      0.00%     67.25% # Class of executed instruction
system.cpu0.op_class::FloatAdd                      0      0.00%     67.25% # Class of executed instruction
system.cpu0.op_class::FloatCmp                      0      0.00%     67.25% # Class of executed instruction
system.cpu0.op_class::FloatCvt                      0      0.00%     67.25% # Class of executed instruction
system.cpu0.op_class::FloatMult                     0      0.00%     67.25% # Class of executed instruction
system.cpu0.op_class::FloatDiv                      0      0.00%     67.25% # Class of executed instruction
system.cpu0.op_class::FloatSqrt                     0      0.00%     67.25% # Class of executed instruction
system.cpu0.op_class::SimdAdd                       0      0.00%     67.25% # Class of executed instruction
system.cpu0.op_class::SimdAddAcc                    0      0.00%     67.25% # Class of executed instruction
system.cpu0.op_class::SimdAlu                       0      0.00%     67.25% # Class of executed instruction
system.cpu0.op_class::SimdCmp                       0      0.00%     67.25% # Class of executed instruction
system.cpu0.op_class::SimdCvt                       0      0.00%     67.25% # Class of executed instruction
system.cpu0.op_class::SimdMisc                      0      0.00%     67.25% # Class of executed instruction
system.cpu0.op_class::SimdMult                      0      0.00%     67.25% # Class of executed instruction
system.cpu0.op_class::SimdMultAcc                   0      0.00%     67.25% # Class of executed instruction
system.cpu0.op_class::SimdShift                     0      0.00%     67.25% # Class of executed instruction
system.cpu0.op_class::SimdShiftAcc                  0      0.00%     67.25% # Class of executed instruction
system.cpu0.op_class::SimdSqrt                      0      0.00%     67.25% # Class of executed instruction
system.cpu0.op_class::SimdFloatAdd                  0      0.00%     67.25% # Class of executed instruction
system.cpu0.op_class::SimdFloatAlu                  0      0.00%     67.25% # Class of executed instruction
system.cpu0.op_class::SimdFloatCmp                  0      0.00%     67.25% # Class of executed instruction
system.cpu0.op_class::SimdFloatCvt                  0      0.00%     67.25% # Class of executed instruction
system.cpu0.op_class::SimdFloatDiv                  0      0.00%     67.25% # Class of executed instruction
system.cpu0.op_class::SimdFloatMisc              8177      0.01%     67.26% # Class of executed instruction
system.cpu0.op_class::SimdFloatMult                 0      0.00%     67.26% # Class of executed instruction
system.cpu0.op_class::SimdFloatMultAcc              0      0.00%     67.26% # Class of executed instruction
system.cpu0.op_class::SimdFloatSqrt                 0      0.00%     67.26% # Class of executed instruction
system.cpu0.op_class::MemRead                19295047     17.61%     84.87% # Class of executed instruction
system.cpu0.op_class::MemWrite               16571658     15.13%    100.00% # Class of executed instruction
system.cpu0.op_class::IprAccess                     0      0.00%    100.00% # Class of executed instruction
system.cpu0.op_class::InstPrefetch                  0      0.00%    100.00% # Class of executed instruction
system.cpu0.op_class::total                 109543126                       # Class of executed instruction
system.cpu0.kern.inst.arm                           0                       # number of arm instructions executed
system.cpu0.kern.inst.quiesce                    1879                       # number of quiesce instructions executed
system.cpu0.dcache.tags.replacements           690539                       # number of replacements
system.cpu0.dcache.tags.tagsinuse          487.185772                       # Cycle average of tags in use
system.cpu0.dcache.tags.total_refs           33864824                       # Total number of references to valid blocks.
system.cpu0.dcache.tags.sampled_refs           691051                       # Sample count of references to valid blocks.
system.cpu0.dcache.tags.avg_refs            49.004812                       # Average number of references to valid blocks.
system.cpu0.dcache.tags.warmup_cycle       1015908000                       # Cycle when the warmup percentage was hit.
system.cpu0.dcache.tags.occ_blocks::cpu0.data   487.185772                       # Average occupied blocks per requestor
system.cpu0.dcache.tags.occ_percent::cpu0.data     0.951535                       # Average percentage of cache occupancy
system.cpu0.dcache.tags.occ_percent::total     0.951535                       # Average percentage of cache occupancy
system.cpu0.dcache.tags.occ_task_id_blocks::1024          512                       # Occupied blocks per task id
system.cpu0.dcache.tags.age_task_id_blocks_1024::0          111                       # Occupied blocks per task id
system.cpu0.dcache.tags.age_task_id_blocks_1024::1          275                       # Occupied blocks per task id
system.cpu0.dcache.tags.age_task_id_blocks_1024::2          126                       # Occupied blocks per task id
system.cpu0.dcache.tags.occ_task_id_percent::1024            1                       # Percentage of cache occupancy per task id
system.cpu0.dcache.tags.tag_accesses         70103571                       # Number of tag accesses
system.cpu0.dcache.tags.data_accesses        70103571                       # Number of data accesses
system.cpu0.dcache.ReadReq_hits::cpu0.data     17785791                       # number of ReadReq hits
system.cpu0.dcache.ReadReq_hits::total       17785791                       # number of ReadReq hits
system.cpu0.dcache.WriteReq_hits::cpu0.data     14958877                       # number of WriteReq hits
system.cpu0.dcache.WriteReq_hits::total      14958877                       # number of WriteReq hits
system.cpu0.dcache.SoftPFReq_hits::cpu0.data       318525                       # number of SoftPFReq hits
system.cpu0.dcache.SoftPFReq_hits::total       318525                       # number of SoftPFReq hits
system.cpu0.dcache.LoadLockedReq_hits::cpu0.data       364927                       # number of LoadLockedReq hits
system.cpu0.dcache.LoadLockedReq_hits::total       364927                       # number of LoadLockedReq hits
system.cpu0.dcache.StoreCondReq_hits::cpu0.data       361705                       # number of StoreCondReq hits
system.cpu0.dcache.StoreCondReq_hits::total       361705                       # number of StoreCondReq hits
system.cpu0.dcache.demand_hits::cpu0.data     32744668                       # number of demand (read+write) hits
system.cpu0.dcache.demand_hits::total        32744668                       # number of demand (read+write) hits
system.cpu0.dcache.overall_hits::cpu0.data     33063193                       # number of overall hits
system.cpu0.dcache.overall_hits::total       33063193                       # number of overall hits
system.cpu0.dcache.ReadReq_misses::cpu0.data       394905                       # number of ReadReq misses
system.cpu0.dcache.ReadReq_misses::total       394905                       # number of ReadReq misses
system.cpu0.dcache.WriteReq_misses::cpu0.data       324481                       # number of WriteReq misses
system.cpu0.dcache.WriteReq_misses::total       324481                       # number of WriteReq misses
system.cpu0.dcache.SoftPFReq_misses::cpu0.data       127732                       # number of SoftPFReq misses
system.cpu0.dcache.SoftPFReq_misses::total       127732                       # number of SoftPFReq misses
system.cpu0.dcache.LoadLockedReq_misses::cpu0.data        21710                       # number of LoadLockedReq misses
system.cpu0.dcache.LoadLockedReq_misses::total        21710                       # number of LoadLockedReq misses
system.cpu0.dcache.StoreCondReq_misses::cpu0.data        20007                       # number of StoreCondReq misses
system.cpu0.dcache.StoreCondReq_misses::total        20007                       # number of StoreCondReq misses
system.cpu0.dcache.demand_misses::cpu0.data       719386                       # number of demand (read+write) misses
system.cpu0.dcache.demand_misses::total        719386                       # number of demand (read+write) misses
system.cpu0.dcache.overall_misses::cpu0.data       847118                       # number of overall misses
system.cpu0.dcache.overall_misses::total       847118                       # number of overall misses
system.cpu0.dcache.ReadReq_miss_latency::cpu0.data   4990872752                       # number of ReadReq miss cycles
system.cpu0.dcache.ReadReq_miss_latency::total   4990872752                       # number of ReadReq miss cycles
system.cpu0.dcache.WriteReq_miss_latency::cpu0.data   4944330313                       # number of WriteReq miss cycles
system.cpu0.dcache.WriteReq_miss_latency::total   4944330313                       # number of WriteReq miss cycles
system.cpu0.dcache.LoadLockedReq_miss_latency::cpu0.data    327573000                       # number of LoadLockedReq miss cycles
system.cpu0.dcache.LoadLockedReq_miss_latency::total    327573000                       # number of LoadLockedReq miss cycles
system.cpu0.dcache.StoreCondReq_miss_latency::cpu0.data    444426745                       # number of StoreCondReq miss cycles
system.cpu0.dcache.StoreCondReq_miss_latency::total    444426745                       # number of StoreCondReq miss cycles
system.cpu0.dcache.StoreCondFailReq_miss_latency::cpu0.data      1572500                       # number of StoreCondFailReq miss cycles
system.cpu0.dcache.StoreCondFailReq_miss_latency::total      1572500                       # number of StoreCondFailReq miss cycles
system.cpu0.dcache.demand_miss_latency::cpu0.data   9935203065                       # number of demand (read+write) miss cycles
system.cpu0.dcache.demand_miss_latency::total   9935203065                       # number of demand (read+write) miss cycles
system.cpu0.dcache.overall_miss_latency::cpu0.data   9935203065                       # number of overall miss cycles
system.cpu0.dcache.overall_miss_latency::total   9935203065                       # number of overall miss cycles
system.cpu0.dcache.ReadReq_accesses::cpu0.data     18180696                       # number of ReadReq accesses(hits+misses)
[...]
system.l2c.UpgradeReq_avg_mshr_miss_latency::cpu0.data 10136.837890                       # average UpgradeReq mshr miss latency
system.l2c.UpgradeReq_avg_mshr_miss_latency::cpu1.data 10036.709800                       # average UpgradeReq mshr miss latency
system.l2c.UpgradeReq_avg_mshr_miss_latency::total 10112.219988                       # average UpgradeReq mshr miss latency
system.l2c.SCUpgradeReq_avg_mshr_miss_latency::cpu0.data 10172.500000                       # average SCUpgradeReq mshr miss latency
system.l2c.SCUpgradeReq_avg_mshr_miss_latency::cpu1.data 10004.720430                       # average SCUpgradeReq mshr miss latency
system.l2c.SCUpgradeReq_avg_mshr_miss_latency::total 10069.375699                       # average SCUpgradeReq mshr miss latency
system.l2c.ReadExReq_avg_mshr_miss_latency::cpu0.data 65540.206815                       # average ReadExReq mshr miss latency
system.l2c.ReadExReq_avg_mshr_miss_latency::cpu1.data 60643.193880                       # average ReadExReq mshr miss latency
system.l2c.ReadExReq_avg_mshr_miss_latency::total 63438.436062                       # average ReadExReq mshr miss latency
system.l2c.demand_avg_mshr_miss_latency::cpu0.dtb.walker 58392.857143                       # average overall mshr miss latency
system.l2c.demand_avg_mshr_miss_latency::cpu0.itb.walker        62500                       # average overall mshr miss latency
system.l2c.demand_avg_mshr_miss_latency::cpu0.inst 60504.907194                       # average overall mshr miss latency
system.l2c.demand_avg_mshr_miss_latency::cpu0.data 66273.437355                       # average overall mshr miss latency
system.l2c.demand_avg_mshr_miss_latency::cpu0.l2cache.prefetcher 84364.293409                       # average overall mshr miss latency
system.l2c.demand_avg_mshr_miss_latency::cpu1.dtb.walker        62500                       # average overall mshr miss latency
system.l2c.demand_avg_mshr_miss_latency::cpu1.inst 62460.730674                       # average overall mshr miss latency
system.l2c.demand_avg_mshr_miss_latency::cpu1.data 61824.462414                       # average overall mshr miss latency
system.l2c.demand_avg_mshr_miss_latency::cpu1.l2cache.prefetcher 103009.293889                       # average overall mshr miss latency
system.l2c.demand_avg_mshr_miss_latency::total 79396.679517                       # average overall mshr miss latency
system.l2c.overall_avg_mshr_miss_latency::cpu0.dtb.walker 58392.857143                       # average overall mshr miss latency
system.l2c.overall_avg_mshr_miss_latency::cpu0.itb.walker        62500                       # average overall mshr miss latency
system.l2c.overall_avg_mshr_miss_latency::cpu0.inst 60504.907194                       # average overall mshr miss latency
system.l2c.overall_avg_mshr_miss_latency::cpu0.data 66273.437355                       # average overall mshr miss latency
system.l2c.overall_avg_mshr_miss_latency::cpu0.l2cache.prefetcher 84364.293409                       # average overall mshr miss latency
system.l2c.overall_avg_mshr_miss_latency::cpu1.dtb.walker        62500                       # average overall mshr miss latency
system.l2c.overall_avg_mshr_miss_latency::cpu1.inst 62460.730674                       # average overall mshr miss latency
system.l2c.overall_avg_mshr_miss_latency::cpu1.data 61824.462414                       # average overall mshr miss latency
system.l2c.overall_avg_mshr_miss_latency::cpu1.l2cache.prefetcher 103009.293889                       # average overall mshr miss latency
system.l2c.overall_avg_mshr_miss_latency::total 79396.679517                       # average overall mshr miss latency
system.l2c.ReadReq_avg_mshr_uncacheable_latency::cpu0.inst          inf                       # average ReadReq mshr uncacheable latency
system.l2c.ReadReq_avg_mshr_uncacheable_latency::cpu0.data          inf                       # average ReadReq mshr uncacheable latency
system.l2c.ReadReq_avg_mshr_uncacheable_latency::cpu1.inst          inf                       # average ReadReq mshr uncacheable latency
system.l2c.ReadReq_avg_mshr_uncacheable_latency::cpu1.data          inf                       # average ReadReq mshr uncacheable latency
system.l2c.ReadReq_avg_mshr_uncacheable_latency::total          inf                       # average ReadReq mshr uncacheable latency
system.l2c.WriteReq_avg_mshr_uncacheable_latency::cpu0.data          inf                       # average WriteReq mshr uncacheable latency
system.l2c.WriteReq_avg_mshr_uncacheable_latency::cpu1.data          inf                       # average WriteReq mshr uncacheable latency
system.l2c.WriteReq_avg_mshr_uncacheable_latency::total          inf                       # average WriteReq mshr uncacheable latency
system.l2c.overall_avg_mshr_uncacheable_latency::cpu0.inst          inf                       # average overall mshr uncacheable latency
system.l2c.overall_avg_mshr_uncacheable_latency::cpu0.data          inf                       # average overall mshr uncacheable latency
system.l2c.overall_avg_mshr_uncacheable_latency::cpu1.inst          inf                       # average overall mshr uncacheable latency
system.l2c.overall_avg_mshr_uncacheable_latency::cpu1.data          inf                       # average overall mshr uncacheable latency
system.l2c.overall_avg_mshr_uncacheable_latency::total          inf                       # average overall mshr uncacheable latency
system.l2c.no_allocate_misses                       0                       # Number of misses that were no-allocate
system.membus.trans_dist::ReadReq              215303                       # Transaction distribution
system.membus.trans_dist::ReadResp             215303                       # Transaction distribution
system.membus.trans_dist::WriteReq              30982                       # Transaction distribution
system.membus.trans_dist::WriteResp             30982                       # Transaction distribution
system.membus.trans_dist::Writeback            135225                       # Transaction distribution
system.membus.trans_dist::WriteInvalidateReq        36224                       # Transaction distribution
system.membus.trans_dist::WriteInvalidateResp        36224                       # Transaction distribution
system.membus.trans_dist::UpgradeReq            76008                       # Transaction distribution
system.membus.trans_dist::SCUpgradeReq          40410                       # Transaction distribution
system.membus.trans_dist::UpgradeResp           13867                       # Transaction distribution
system.membus.trans_dist::SCUpgradeFailReq            5                       # Transaction distribution
system.membus.trans_dist::ReadExReq             40350                       # Transaction distribution
system.membus.trans_dist::ReadExResp            19836                       # Transaction distribution
system.membus.pkt_count_system.l2c.mem_side::system.bridge.slave       107970                       # Packet count per connected master and slave (bytes)
system.membus.pkt_count_system.l2c.mem_side::system.realview.nvmem.port           34                       # Packet count per connected master and slave (bytes)
system.membus.pkt_count_system.l2c.mem_side::system.realview.gic.pio        13762                       # Packet count per connected master and slave (bytes)
system.membus.pkt_count_system.l2c.mem_side::system.physmem.port       659440                       # Packet count per connected master and slave (bytes)
system.membus.pkt_count_system.l2c.mem_side::total       781206                       # Packet count per connected master and slave (bytes)
system.membus.pkt_count_system.iocache.mem_side::system.physmem.port       108908                       # Packet count per connected master and slave (bytes)
system.membus.pkt_count_system.iocache.mem_side::total       108908                       # Packet count per connected master and slave (bytes)
system.membus.pkt_count::total                 890114                       # Packet count per connected master and slave (bytes)
system.membus.pkt_size_system.l2c.mem_side::system.bridge.slave       162850                       # Cumulative packet size per connected master and slave (bytes)
system.membus.pkt_size_system.l2c.mem_side::system.realview.nvmem.port           68                       # Cumulative packet size per connected master and slave (bytes)
system.membus.pkt_size_system.l2c.mem_side::system.realview.gic.pio        27524                       # Cumulative packet size per connected master and slave (bytes)
system.membus.pkt_size_system.l2c.mem_side::system.physmem.port     18582632                       # Cumulative packet size per connected master and slave (bytes)
system.membus.pkt_size_system.l2c.mem_side::total     18773074                       # Cumulative packet size per connected master and slave (bytes)
system.membus.pkt_size_system.iocache.mem_side::system.physmem.port      4635456                       # Cumulative packet size per connected master and slave (bytes)
system.membus.pkt_size_system.iocache.mem_side::total      4635456                       # Cumulative packet size per connected master and slave (bytes)
system.membus.pkt_size::total                23408530                       # Cumulative packet size per connected master and slave (bytes)
system.membus.snoops                           123675                       # Total snoops (count)
system.membus.snoop_fanout::samples            499419                       # Request fanout histogram
system.membus.snoop_fanout::mean                    1                       # Request fanout histogram
system.membus.snoop_fanout::stdev                   0                       # Request fanout histogram
system.membus.snoop_fanout::underflows              0      0.00%      0.00% # Request fanout histogram
system.membus.snoop_fanout::0                       0      0.00%      0.00% # Request fanout histogram
system.membus.snoop_fanout::1                  499419    100.00%    100.00% # Request fanout histogram
system.membus.snoop_fanout::2                       0      0.00%    100.00% # Request fanout histogram
system.membus.snoop_fanout::overflows               0      0.00%    100.00% # Request fanout histogram
system.membus.snoop_fanout::min_value               1                       # Request fanout histogram
system.membus.snoop_fanout::max_value               1                       # Request fanout histogram
system.membus.snoop_fanout::total              499419                       # Request fanout histogram
system.membus.reqLayer0.occupancy            88165000                       # Layer occupancy (ticks)
system.membus.reqLayer0.utilization               0.0                       # Layer utilization (%)
system.membus.reqLayer1.occupancy               18500                       # Layer occupancy (ticks)
system.membus.reqLayer1.utilization               0.0                       # Layer utilization (%)
system.membus.reqLayer2.occupancy            11453500                       # Layer occupancy (ticks)
system.membus.reqLayer2.utilization               0.0                       # Layer utilization (%)
system.membus.reqLayer5.occupancy          1828859499                       # Layer occupancy (ticks)
system.membus.reqLayer5.utilization               0.1                       # Layer utilization (%)
system.membus.respLayer2.occupancy         1931425684                       # Layer occupancy (ticks)
system.membus.respLayer2.utilization              0.1                       # Layer utilization (%)
system.membus.respLayer3.occupancy           38544475                       # Layer occupancy (ticks)
system.membus.respLayer3.utilization              0.0                       # Layer utilization (%)
system.realview.ethernet.descDMAReads               0                       # Number of descriptors the device read w/ DMA
system.realview.ethernet.descDMAWrites              0                       # Number of descriptors the device wrote w/ DMA
system.realview.ethernet.descDmaReadBytes            0                       # number of descriptor bytes read w/ DMA
system.realview.ethernet.descDmaWriteBytes            0                       # number of descriptor bytes write w/ DMA
system.realview.ethernet.postedSwi                  0                       # number of software interrupts posted to CPU
system.realview.ethernet.coalescedSwi             nan                       # average number of Swi's coalesced into each post
system.realview.ethernet.totalSwi                   0                       # total number of Swi written to ISR
system.realview.ethernet.postedRxIdle               0                       # number of rxIdle interrupts posted to CPU
system.realview.ethernet.coalescedRxIdle          nan                       # average number of RxIdle's coalesced into each post
system.realview.ethernet.totalRxIdle                0                       # total number of RxIdle written to ISR
system.realview.ethernet.postedRxOk                 0                       # number of RxOk interrupts posted to CPU
system.realview.ethernet.coalescedRxOk            nan                       # average number of RxOk's coalesced into each post
system.realview.ethernet.totalRxOk                  0                       # total number of RxOk written to ISR
system.realview.ethernet.postedRxDesc               0                       # number of RxDesc interrupts posted to CPU
system.realview.ethernet.coalescedRxDesc          nan                       # average number of RxDesc's coalesced into each post
system.realview.ethernet.totalRxDesc                0                       # total number of RxDesc written to ISR
system.realview.ethernet.postedTxOk                 0                       # number of TxOk interrupts posted to CPU
system.realview.ethernet.coalescedTxOk            nan                       # average number of TxOk's coalesced into each post
system.realview.ethernet.totalTxOk                  0                       # total number of TxOk written to ISR
system.realview.ethernet.postedTxIdle               0                       # number of TxIdle interrupts posted to CPU
system.realview.ethernet.coalescedTxIdle          nan                       # average number of TxIdle's coalesced into each post
system.realview.ethernet.totalTxIdle                0                       # total number of TxIdle written to ISR
system.realview.ethernet.postedTxDesc               0                       # number of TxDesc interrupts posted to CPU
system.realview.ethernet.coalescedTxDesc          nan                       # average number of TxDesc's coalesced into each post
system.realview.ethernet.totalTxDesc                0                       # total number of TxDesc written to ISR
system.realview.ethernet.postedRxOrn                0                       # number of RxOrn posted to CPU
system.realview.ethernet.coalescedRxOrn           nan                       # average number of RxOrn's coalesced into each post
system.realview.ethernet.totalRxOrn                 0                       # total number of RxOrn written to ISR
system.realview.ethernet.coalescedTotal           nan                       # average number of interrupts coalesced into each post
system.realview.ethernet.postedInterrupts            0                       # number of posts to CPU
system.realview.ethernet.droppedPackets             0                       # number of packets dropped
system.toL2Bus.trans_dist::ReadReq             482729                       # Transaction distribution
system.toL2Bus.trans_dist::ReadResp            482714                       # Transaction distribution
system.toL2Bus.trans_dist::WriteReq             30982                       # Transaction distribution
system.toL2Bus.trans_dist::WriteResp            30982                       # Transaction distribution
system.toL2Bus.trans_dist::Writeback           227719                       # Transaction distribution
system.toL2Bus.trans_dist::WriteInvalidateReq        36225                       # Transaction distribution
system.toL2Bus.trans_dist::UpgradeReq           79027                       # Transaction distribution
system.toL2Bus.trans_dist::SCUpgradeReq         40738                       # Transaction distribution
system.toL2Bus.trans_dist::UpgradeResp         119765                       # Transaction distribution
system.toL2Bus.trans_dist::SCUpgradeFailReq           81                       # Transaction distribution
system.toL2Bus.trans_dist::UpgradeFailResp           81                       # Transaction distribution
system.toL2Bus.trans_dist::ReadExReq            51496                       # Transaction distribution
system.toL2Bus.trans_dist::ReadExResp           51496                       # Transaction distribution
system.toL2Bus.pkt_count_system.cpu0.l2cache.mem_side::system.l2c.cpu_side      1065854                       # Packet count per connected master and slave (bytes)
system.toL2Bus.pkt_count_system.cpu1.l2cache.mem_side::system.l2c.cpu_side       282098                       # Packet count per connected master and slave (bytes)
system.toL2Bus.pkt_count::total               1347952                       # Packet count per connected master and slave (bytes)
system.toL2Bus.pkt_size_system.cpu0.l2cache.mem_side::system.l2c.cpu_side     31837086                       # Cumulative packet size per connected master and slave (bytes)
system.toL2Bus.pkt_size_system.cpu1.l2cache.mem_side::system.l2c.cpu_side      4944756                       # Cumulative packet size per connected master and slave (bytes)
system.toL2Bus.pkt_size::total               36781842                       # Cumulative packet size per connected master and slave (bytes)
system.toL2Bus.snoops                          286323                       # Total snoops (count)
system.toL2Bus.snoop_fanout::samples           873908                       # Request fanout histogram
system.toL2Bus.snoop_fanout::mean            1.041744                       # Request fanout histogram
system.toL2Bus.snoop_fanout::stdev           0.200003                       # Request fanout histogram
system.toL2Bus.snoop_fanout::underflows             0      0.00%      0.00% # Request fanout histogram
system.toL2Bus.snoop_fanout::0                      0      0.00%      0.00% # Request fanout histogram
system.toL2Bus.snoop_fanout::1                 837428     95.83%     95.83% # Request fanout histogram
system.toL2Bus.snoop_fanout::2                  36480      4.17%    100.00% # Request fanout histogram
system.toL2Bus.snoop_fanout::overflows              0      0.00%    100.00% # Request fanout histogram
system.toL2Bus.snoop_fanout::min_value              1                       # Request fanout histogram
system.toL2Bus.snoop_fanout::max_value              2                       # Request fanout histogram
system.toL2Bus.snoop_fanout::total             873908                       # Request fanout histogram
system.toL2Bus.reqLayer0.occupancy         1446151615                       # Layer occupancy (ticks)
system.toL2Bus.reqLayer0.utilization              0.1                       # Layer utilization (%)
system.toL2Bus.snoopLayer0.occupancy          1080000                       # Layer occupancy (ticks)
system.toL2Bus.snoopLayer0.utilization            0.0                       # Layer utilization (%)
system.toL2Bus.respLayer0.occupancy        1735034184                       # Layer occupancy (ticks)
system.toL2Bus.respLayer0.utilization             0.1                       # Layer utilization (%)
system.toL2Bus.respLayer1.occupancy         618323353                       # Layer occupancy (ticks)
system.toL2Bus.respLayer1.utilization             0.0                       # Layer utilization (%)

---------- End Simulation Statistics   ----------
