
---------- Begin Simulation Statistics ----------
sim_seconds                                  2.868581                       # Number of seconds simulated
sim_ticks                                2868581440500                       # Number of ticks simulated
final_tick                               2868581440500                       # Number of ticks from beginning of simulation (restored from checkpoints and never reset)
sim_freq                                 1000000000000                       # Frequency of simulated ticks
host_inst_rate                                 717360                       # Simulator instruction rate (inst/s)
host_op_rate                                   867708                       # Simulator op (including micro ops) rate (op/s)
host_tick_rate                            15647358559                       # Simulator tick rate (ticks/s)
host_mem_usage                                 639748                       # Number of bytes of host memory used
host_seconds                                   183.33                       # Real time elapsed on the host
sim_insts                                   131511324                       # Number of instructions simulated
sim_ops                                     159074269                       # Number of ops (including micro ops) simulated
system.voltage_domain.voltage                       1                       # Voltage in Volts
system.clk_domain.clock                          1000                       # Clock period in ticks
system.physmem.bytes_read::cpu0.dtb.walker          448                       # Number of bytes read from this memory
system.physmem.bytes_read::cpu0.itb.walker          128                       # Number of bytes read from this memory
system.physmem.bytes_read::cpu0.inst          1161572                       # Number of bytes read from this memory
system.physmem.bytes_read::cpu0.data          1227520                       # Number of bytes read from this memory
system.physmem.bytes_read::cpu0.l2cache.prefetcher      8321088                       # Number of bytes read from this memory
system.physmem.bytes_read::cpu1.inst           141140                       # Number of bytes read from this memory
system.physmem.bytes_read::cpu1.data           467936                       # Number of bytes read from this memory
system.physmem.bytes_read::cpu1.l2cache.prefetcher       345792                       # Number of bytes read from this memory
system.physmem.bytes_read::realview.ide           960                       # Number of bytes read from this memory
system.physmem.bytes_read::total             11666584                       # Number of bytes read from this memory
system.physmem.bytes_inst_read::cpu0.inst      1161572                       # Number of instructions bytes read from this memory
system.physmem.bytes_inst_read::cpu1.inst       141140                       # Number of instructions bytes read from this memory
system.physmem.bytes_inst_read::total         1302712                       # Number of instructions bytes read from this memory
system.physmem.bytes_written::writebacks      8208384                       # Number of bytes written to this memory
system.physmem.bytes_written::cpu0.data         17704                       # Number of bytes written to this memory
system.physmem.bytes_written::cpu1.data            40                       # Number of bytes written to this memory
system.physmem.bytes_written::total           8226128                       # Number of bytes written to this memory
system.physmem.num_reads::cpu0.dtb.walker            7                       # Number of read requests responded to by this memory
system.physmem.num_reads::cpu0.itb.walker            2                       # Number of read requests responded to by this memory
system.physmem.num_reads::cpu0.inst             26603                       # Number of read requests responded to by this memory
system.physmem.num_reads::cpu0.data             19706                       # Number of read requests responded to by this memory
system.physmem.num_reads::cpu0.l2cache.prefetcher       130017                       # Number of read requests responded to by this memory
system.physmem.num_reads::cpu1.inst              2360                       # Number of read requests responded to by this memory
system.physmem.num_reads::cpu1.data              7335                       # Number of read requests responded to by this memory
system.physmem.num_reads::cpu1.l2cache.prefetcher         5403                       # Number of read requests responded to by this memory
system.physmem.num_reads::realview.ide             15                       # Number of read requests responded to by this memory
system.physmem.num_reads::total                191448                       # Number of read requests responded to by this memory
system.physmem.num_writes::writebacks          128256                       # Number of write requests responded to by this memory
system.physmem.num_writes::cpu0.data             4426                       # Number of write requests responded to by this memory
system.physmem.num_writes::cpu1.data               10                       # Number of write requests responded to by this memory
system.physmem.num_writes::total               132692                       # Number of write requests responded to by this memory
system.physmem.bw_read::cpu0.dtb.walker           156                       # Total read bandwidth from this memory (bytes/s)
system.physmem.bw_read::cpu0.itb.walker            45                       # Total read bandwidth from this memory (bytes/s)
system.physmem.bw_read::cpu0.inst              404929                       # Total read bandwidth from this memory (bytes/s)
system.physmem.bw_read::cpu0.data              427919                       # Total read bandwidth from this memory (bytes/s)
system.physmem.bw_read::cpu0.l2cache.prefetcher      2900768                       # Total read bandwidth from this memory (bytes/s)
system.physmem.bw_read::cpu1.inst               49202                       # Total read bandwidth from this memory (bytes/s)
system.physmem.bw_read::cpu1.data              163125                       # Total read bandwidth from this memory (bytes/s)
system.physmem.bw_read::cpu1.l2cache.prefetcher       120545                       # Total read bandwidth from this memory (bytes/s)
system.physmem.bw_read::realview.ide              335                       # Total read bandwidth from this memory (bytes/s)
system.physmem.bw_read::total                 4067022                       # Total read bandwidth from this memory (bytes/s)
system.physmem.bw_inst_read::cpu0.inst         404929                       # Instruction read bandwidth from this memory (bytes/s)
system.physmem.bw_inst_read::cpu1.inst          49202                       # Instruction read bandwidth from this memory (bytes/s)
system.physmem.bw_inst_read::total             454131                       # Instruction read bandwidth from this memory (bytes/s)
system.physmem.bw_write::writebacks           2861478                       # Write bandwidth from this memory (bytes/s)
system.physmem.bw_write::cpu0.data               6172                       # Write bandwidth from this memory (bytes/s)
system.physmem.bw_write::cpu1.data                 14                       # Write bandwidth from this memory (bytes/s)
system.physmem.bw_write::total                2867664                       # Write bandwidth from this memory (bytes/s)
system.physmem.bw_total::writebacks           2861478                       # Total bandwidth to/from this memory (bytes/s)
system.physmem.bw_total::cpu0.dtb.walker          156                       # Total bandwidth to/from this memory (bytes/s)
system.physmem.bw_total::cpu0.itb.walker           45                       # Total bandwidth to/from this memory (bytes/s)
system.physmem.bw_total::cpu0.inst             404929                       # Total bandwidth to/from this memory (bytes/s)
system.physmem.bw_total::cpu0.data             434091                       # Total bandwidth to/from this memory (bytes/s)
system.physmem.bw_total::cpu0.l2cache.prefetcher      2900768                       # Total bandwidth to/from this memory (bytes/s)
system.physmem.bw_total::cpu1.inst              49202                       # Total bandwidth to/from this memory (bytes/s)
system.physmem.bw_total::cpu1.data             163138                       # Total bandwidth to/from this memory (bytes/s)
system.physmem.bw_total::cpu1.l2cache.prefetcher       120545                       # Total bandwidth to/from this memory (bytes/s)
system.physmem.bw_total::realview.ide             335                       # Total bandwidth to/from this memory (bytes/s)
system.physmem.bw_total::total                6934686                       # Total bandwidth to/from this memory (bytes/s)
system.physmem.readReqs                        191448                       # Number of read requests accepted
system.physmem.writeReqs                       168916                       # Number of write requests accepted
system.physmem.readBursts                      191448                       # Number of DRAM read bursts, including those serviced by the write queue
system.physmem.writeBursts                     168916                       # Number of DRAM write bursts, including those merged in the write queue
system.physmem.bytesReadDRAM                 12244160                       # Total number of bytes read from DRAM
system.physmem.bytesReadWrQ                      8512                       # Total number of bytes read from write queue
system.physmem.bytesWritten                   9286016                       # Total number of bytes written to DRAM
system.physmem.bytesReadSys                  11666584                       # Total read bytes from the system interface side
system.physmem.bytesWrittenSys               10544464                       # Total written bytes from the system interface side
system.physmem.servicedByWrQ                      133                       # Number of DRAM read bursts serviced by the write queue
system.physmem.mergedWrBursts                   23799                       # Number of DRAM write bursts merged with an existing one
system.physmem.neitherReadNorWriteReqs          13043                       # Number of requests that are neither read nor write
system.physmem.perBankRdBursts::0               11402                       # Per bank write bursts
system.physmem.perBankRdBursts::1               11523                       # Per bank write bursts
system.physmem.perBankRdBursts::2               11617                       # Per bank write bursts
system.physmem.perBankRdBursts::3               11771                       # Per bank write bursts
system.physmem.perBankRdBursts::4               20348                       # Per bank write bursts
system.physmem.perBankRdBursts::5               12097                       # Per bank write bursts
system.physmem.perBankRdBursts::6               11123                       # Per bank write bursts
system.physmem.perBankRdBursts::7               11241                       # Per bank write bursts
system.physmem.perBankRdBursts::8               11419                       # Per bank write bursts
system.physmem.perBankRdBursts::9               11532                       # Per bank write bursts
system.physmem.perBankRdBursts::10              11480                       # Per bank write bursts
system.physmem.perBankRdBursts::11              10715                       # Per bank write bursts
system.physmem.perBankRdBursts::12              11252                       # Per bank write bursts
system.physmem.perBankRdBursts::13              11225                       # Per bank write bursts
system.physmem.perBankRdBursts::14              11052                       # Per bank write bursts
system.physmem.perBankRdBursts::15              11518                       # Per bank write bursts
system.physmem.perBankWrBursts::0                9249                       # Per bank write bursts
system.physmem.perBankWrBursts::1                9496                       # Per bank write bursts
system.physmem.perBankWrBursts::2                9535                       # Per bank write bursts
system.physmem.perBankWrBursts::3                9435                       # Per bank write bursts
system.physmem.perBankWrBursts::4                8870                       # Per bank write bursts
system.physmem.perBankWrBursts::5                9467                       # Per bank write bursts
system.physmem.perBankWrBursts::6                9116                       # Per bank write bursts
system.physmem.perBankWrBursts::7                8737                       # Per bank write bursts
system.physmem.perBankWrBursts::8                8796                       # Per bank write bursts
system.physmem.perBankWrBursts::9                9230                       # Per bank write bursts
system.physmem.perBankWrBursts::10               9164                       # Per bank write bursts
system.physmem.perBankWrBursts::11               8822                       # Per bank write bursts
system.physmem.perBankWrBursts::12               9029                       # Per bank write bursts
system.physmem.perBankWrBursts::13               8642                       # Per bank write bursts
system.physmem.perBankWrBursts::14               8756                       # Per bank write bursts
system.physmem.perBankWrBursts::15               8750                       # Per bank write bursts
system.physmem.numRdRetry                           0                       # Number of times read queue was full causing retry
system.physmem.numWrRetry                          83                       # Number of times write queue was full causing retry
system.physmem.totGap                    2868581033500                       # Total gap between requests
system.physmem.readPktSize::0                       0                       # Read request sizes (log2)
system.physmem.readPktSize::1                       0                       # Read request sizes (log2)
system.physmem.readPktSize::2                    9742                       # Read request sizes (log2)
system.physmem.readPktSize::3                      28                       # Read request sizes (log2)
system.physmem.readPktSize::4                       0                       # Read request sizes (log2)
system.physmem.readPktSize::5                       0                       # Read request sizes (log2)
system.physmem.readPktSize::6                  181678                       # Read request sizes (log2)
system.physmem.writePktSize::0                      0                       # Write request sizes (log2)
system.physmem.writePktSize::1                      0                       # Write request sizes (log2)
system.physmem.writePktSize::2                   4436                       # Write request sizes (log2)
system.physmem.writePktSize::3                      0                       # Write request sizes (log2)
system.physmem.writePktSize::4                      0                       # Write request sizes (log2)
system.physmem.writePktSize::5                      0                       # Write request sizes (log2)
system.physmem.writePktSize::6                 164480                       # Write request sizes (log2)
system.physmem.rdQLenPdf::0                    134188                       # What read queue length does an incoming req see
system.physmem.rdQLenPdf::1                     15248                       # What read queue length does an incoming req see
system.physmem.rdQLenPdf::2                      9686                       # What read queue length does an incoming req see
system.physmem.rdQLenPdf::3                      8351                       # What read queue length does an incoming req see
system.physmem.rdQLenPdf::4                      6807                       # What read queue length does an incoming req see
system.physmem.rdQLenPdf::5                      5320                       # What read queue length does an incoming req see
system.physmem.rdQLenPdf::6                      4456                       # What read queue length does an incoming req see
system.physmem.rdQLenPdf::7                      3748                       # What read queue length does an incoming req see
system.physmem.rdQLenPdf::8                      3243                       # What read queue length does an incoming req see
system.physmem.rdQLenPdf::9                       108                       # What read queue length does an incoming req see
system.physmem.rdQLenPdf::10                       74                       # What read queue length does an incoming req see
system.physmem.rdQLenPdf::11                       47                       # What read queue length does an incoming req see
system.physmem.rdQLenPdf::12                       20                       # What read queue length does an incoming req see
system.physmem.rdQLenPdf::13                       10                       # What read queue length does an incoming req see
system.physmem.rdQLenPdf::14                        6                       # What read queue length does an incoming req see
system.physmem.rdQLenPdf::15                        2                       # What read queue length does an incoming req see
system.physmem.rdQLenPdf::16                        1                       # What read queue length does an incoming req see
system.physmem.rdQLenPdf::17                        0                       # What read queue length does an incoming req see
system.physmem.rdQLenPdf::18                        0                       # What read queue length does an incoming req see
system.physmem.rdQLenPdf::19                        0                       # What read queue length does an incoming req see
system.physmem.rdQLenPdf::20                        0                       # What read queue length does an incoming req see
system.physmem.rdQLenPdf::21                        0                       # What read queue length does an incoming req see
system.physmem.rdQLenPdf::22                        0                       # What read queue length does an incoming req see
system.physmem.rdQLenPdf::23                        0                       # What read queue length does an incoming req see
system.physmem.rdQLenPdf::24                        0                       # What read queue length does an incoming req see
system.physmem.rdQLenPdf::25                        0                       # What read queue length does an incoming req see
system.physmem.rdQLenPdf::26                        0                       # What read queue length does an incoming req see
system.physmem.rdQLenPdf::27                        0                       # What read queue length does an incoming req see
system.physmem.rdQLenPdf::28                        0                       # What read queue length does an incoming req see
system.physmem.rdQLenPdf::29                        0                       # What read queue length does an incoming req see
system.physmem.rdQLenPdf::30                        0                       # What read queue length does an incoming req see
system.physmem.rdQLenPdf::31                        0                       # What read queue length does an incoming req see
system.physmem.wrQLenPdf::0                         1                       # What write queue length does an incoming req see
system.physmem.wrQLenPdf::1                         1                       # What write queue length does an incoming req see
system.physmem.wrQLenPdf::2                         1                       # What write queue length does an incoming req see
system.physmem.wrQLenPdf::3                         1                       # What write queue length does an incoming req see
system.physmem.wrQLenPdf::4                         1                       # What write queue length does an incoming req see
system.physmem.wrQLenPdf::5                         1                       # What write queue length does an incoming req see
system.physmem.wrQLenPdf::6                         1                       # What write queue length does an incoming req see
system.physmem.wrQLenPdf::7                         1                       # What write queue length does an incoming req see
system.physmem.wrQLenPdf::8                         1                       # What write queue length does an incoming req see
system.physmem.wrQLenPdf::9                         1                       # What write queue length does an incoming req see
system.physmem.wrQLenPdf::10                        1                       # What write queue length does an incoming req see
system.physmem.wrQLenPdf::11                        1                       # What write queue length does an incoming req see
system.physmem.wrQLenPdf::12                        1                       # What write queue length does an incoming req see
system.physmem.wrQLenPdf::13                        1                       # What write queue length does an incoming req see
system.physmem.wrQLenPdf::14                        1                       # What write queue length does an incoming req see
system.physmem.wrQLenPdf::15                     2068                       # What write queue length does an incoming req see
system.physmem.wrQLenPdf::16                     2292                       # What write queue length does an incoming req see
system.physmem.wrQLenPdf::17                     3518                       # What write queue length does an incoming req see
system.physmem.wrQLenPdf::18                     4921                       # What write queue length does an incoming req see
system.physmem.wrQLenPdf::19                     5539                       # What write queue length does an incoming req see
system.physmem.wrQLenPdf::20                     5714                       # What write queue length does an incoming req see
system.physmem.wrQLenPdf::21                     6057                       # What write queue length does an incoming req see
system.physmem.wrQLenPdf::22                     6368                       # What write queue length does an incoming req see
system.physmem.wrQLenPdf::23                     7230                       # What write queue length does an incoming req see
system.physmem.wrQLenPdf::24                     6739                       # What write queue length does an incoming req see
system.physmem.wrQLenPdf::25                     7593                       # What write queue length does an incoming req see
system.physmem.wrQLenPdf::26                     8828                       # What write queue length does an incoming req see
system.physmem.wrQLenPdf::27                     7425                       # What write queue length does an incoming req see
system.physmem.wrQLenPdf::28                     7470                       # What write queue length does an incoming req see
system.physmem.wrQLenPdf::29                    10447                       # What write queue length does an incoming req see
system.physmem.wrQLenPdf::30                     8101                       # What write queue length does an incoming req see
system.physmem.wrQLenPdf::31                     7437                       # What write queue length does an incoming req see
system.physmem.wrQLenPdf::32                     7053                       # What write queue length does an incoming req see
system.physmem.wrQLenPdf::33                     1018                       # What write queue length does an incoming req see
system.physmem.wrQLenPdf::34                     1222                       # What write queue length does an incoming req see
system.physmem.wrQLenPdf::35                     1197                       # What write queue length does an incoming req see
system.physmem.wrQLenPdf::36                     2183                       # What write queue length does an incoming req see
system.physmem.wrQLenPdf::37                     2401                       # What write queue length does an incoming req see
system.physmem.wrQLenPdf::38                     1792                       # What write queue length does an incoming req see
system.physmem.wrQLenPdf::39                     1623                       # What write queue length does an incoming req see
system.physmem.wrQLenPdf::40                     2924                       # What write queue length does an incoming req see
system.physmem.wrQLenPdf::41                     1971                       # What write queue length does an incoming req see
system.physmem.wrQLenPdf::42                     1845                       # What write queue length does an incoming req see
system.physmem.wrQLenPdf::43                     1558                       # What write queue length does an incoming req see
system.physmem.wrQLenPdf::44                     1629                       # What write queue length does an incoming req see
system.physmem.wrQLenPdf::45                     1336                       # What write queue length does an incoming req see
system.physmem.wrQLenPdf::46                     1406                       # What write queue length does an incoming req see
system.physmem.wrQLenPdf::47                     1139                       # What write queue length does an incoming req see
system.physmem.wrQLenPdf::48                     1105                       # What write queue length does an incoming req see
system.physmem.wrQLenPdf::49                      804                       # What write queue length does an incoming req see
system.physmem.wrQLenPdf::50                      456                       # What write queue length does an incoming req see
system.physmem.wrQLenPdf::51                      303                       # What write queue length does an incoming req see
system.physmem.wrQLenPdf::52                      371                       # What write queue length does an incoming req see
system.physmem.wrQLenPdf::53                      277                       # What write queue length does an incoming req see
system.physmem.wrQLenPdf::54                      219                       # What write queue length does an incoming req see
system.physmem.wrQLenPdf::55                      234                       # What write queue length does an incoming req see
system.physmem.wrQLenPdf::56                      204                       # What write queue length does an incoming req see
system.physmem.wrQLenPdf::57                      184                       # What write queue length does an incoming req see
system.physmem.wrQLenPdf::58                      132                       # What write queue length does an incoming req see
system.physmem.wrQLenPdf::59                      171                       # What write queue length does an incoming req see
system.physmem.wrQLenPdf::60                      162                       # What write queue length does an incoming req see
system.physmem.wrQLenPdf::61                      126                       # What write queue length does an incoming req see
system.physmem.wrQLenPdf::62                      110                       # What write queue length does an incoming req see
system.physmem.wrQLenPdf::63                      200                       # What write queue length does an incoming req see
system.physmem.bytesPerActivate::samples        81717                       # Bytes accessed per row activation
system.physmem.bytesPerActivate::mean      263.471640                       # Bytes accessed per row activation
system.physmem.bytesPerActivate::gmean     146.531290                       # Bytes accessed per row activation
system.physmem.bytesPerActivate::stdev     321.110863                       # Bytes accessed per row activation
system.physmem.bytesPerActivate::0-127          41089     50.28%     50.28% # Bytes accessed per row activation
system.physmem.bytesPerActivate::128-255        16342     20.00%     70.28% # Bytes accessed per row activation
system.physmem.bytesPerActivate::256-383         5746      7.03%     77.31% # Bytes accessed per row activation
system.physmem.bytesPerActivate::384-511         3516      4.30%     81.61% # Bytes accessed per row activation
system.physmem.bytesPerActivate::512-639         2447      2.99%     84.61% # Bytes accessed per row activation
system.physmem.bytesPerActivate::640-767         1416      1.73%     86.34% # Bytes accessed per row activation
system.physmem.bytesPerActivate::768-895          997      1.22%     87.56% # Bytes accessed per row activation
system.physmem.bytesPerActivate::896-1023          891      1.09%     88.65% # Bytes accessed per row activation
system.physmem.bytesPerActivate::1024-1151         9273     11.35%    100.00% # Bytes accessed per row activation
system.physmem.bytesPerActivate::total          81717                       # Bytes accessed per row activation
system.physmem.rdPerTurnAround::samples          5972                       # Reads before turning the bus around for writes
system.physmem.rdPerTurnAround::mean        32.034494                       # Reads before turning the bus around for writes
system.physmem.rdPerTurnAround::stdev      599.214233                       # Reads before turning the bus around for writes
system.physmem.rdPerTurnAround::0-2047           5970     99.97%     99.97% # Reads before turning the bus around for writes
system.physmem.rdPerTurnAround::2048-4095            1      0.02%     99.98% # Reads before turning the bus around for writes
system.physmem.rdPerTurnAround::45056-47103            1      0.02%    100.00% # Reads before turning the bus around for writes
system.physmem.rdPerTurnAround::total            5972                       # Reads before turning the bus around for writes
system.physmem.wrPerTurnAround::samples          5972                       # Writes before turning the bus around for reads
system.physmem.wrPerTurnAround::mean        24.295713                       # Writes before turning the bus around for reads
system.physmem.wrPerTurnAround::gmean       18.853114                       # Writes before turning the bus around for reads
system.physmem.wrPerTurnAround::stdev       39.858214                       # Writes before turning the bus around for reads
system.physmem.wrPerTurnAround::16-31            5595     93.69%     93.69% # Writes before turning the bus around for reads
system.physmem.wrPerTurnAround::32-47              97      1.62%     95.31% # Writes before turning the bus around for reads
system.physmem.wrPerTurnAround::48-63              24      0.40%     95.71% # Writes before turning the bus around for reads
system.physmem.wrPerTurnAround::64-79              14      0.23%     95.95% # Writes before turning the bus around for reads
system.physmem.wrPerTurnAround::80-95              35      0.59%     96.53% # Writes before turning the bus around for reads
system.physmem.wrPerTurnAround::96-111             43      0.72%     97.25% # Writes before turning the bus around for reads
system.physmem.wrPerTurnAround::112-127            25      0.42%     97.67% # Writes before turning the bus around for reads
system.physmem.wrPerTurnAround::128-143            12      0.20%     97.87% # Writes before turning the bus around for reads
system.physmem.wrPerTurnAround::144-159            18      0.30%     98.17% # Writes before turning the bus around for reads
system.physmem.wrPerTurnAround::160-175             5      0.08%     98.26% # Writes before turning the bus around for reads
system.physmem.wrPerTurnAround::176-191            30      0.50%     98.76% # Writes before turning the bus around for reads
system.physmem.wrPerTurnAround::192-207            15      0.25%     99.01% # Writes before turning the bus around for reads
system.physmem.wrPerTurnAround::208-223             7      0.12%     99.13% # Writes before turning the bus around for reads
system.physmem.wrPerTurnAround::224-239             4      0.07%     99.20% # Writes before turning the bus around for reads
system.physmem.wrPerTurnAround::240-255             3      0.05%     99.25% # Writes before turning the bus around for reads
system.physmem.wrPerTurnAround::256-271             1      0.02%     99.26% # Writes before turning the bus around for reads
system.physmem.wrPerTurnAround::272-287             3      0.05%     99.31% # Writes before turning the bus around for reads
system.physmem.wrPerTurnAround::288-303             3      0.05%     99.36% # Writes before turning the bus around for reads
system.physmem.wrPerTurnAround::304-319             7      0.12%     99.48% # Writes before turning the bus around for reads
system.physmem.wrPerTurnAround::320-335             2      0.03%     99.51% # Writes before turning the bus around for reads
system.physmem.wrPerTurnAround::336-351             6      0.10%     99.61% # Writes before turning the bus around for reads
system.physmem.wrPerTurnAround::352-367             7      0.12%     99.73% # Writes before turning the bus around for reads
system.physmem.wrPerTurnAround::368-383             1      0.02%     99.75% # Writes before turning the bus around for reads
system.physmem.wrPerTurnAround::384-399             2      0.03%     99.78% # Writes before turning the bus around for reads
system.physmem.wrPerTurnAround::400-415             1      0.02%     99.80% # Writes before turning the bus around for reads
system.physmem.wrPerTurnAround::464-479             1      0.02%     99.82% # Writes before turning the bus around for reads
system.physmem.wrPerTurnAround::480-495             3      0.05%     99.87% # Writes before turning the bus around for reads
system.physmem.wrPerTurnAround::496-511             1      0.02%     99.88% # Writes before turning the bus around for reads
system.physmem.wrPerTurnAround::512-527             1      0.02%     99.90% # Writes before turning the bus around for reads
system.physmem.wrPerTurnAround::528-543             3      0.05%     99.95% # Writes before turning the bus around for reads
system.physmem.wrPerTurnAround::544-559             1      0.02%     99.97% # Writes before turning the bus around for reads
system.physmem.wrPerTurnAround::560-575             2      0.03%    100.00% # Writes before turning the bus around for reads
system.physmem.wrPerTurnAround::total            5972                       # Writes before turning the bus around for reads
system.physmem.totQLat                     4538980935                       # Total ticks spent queuing
system.physmem.totMemAccLat                8126137185                       # Total ticks spent from burst creation until serviced by the DRAM
system.physmem.totBusLat                    956575000                       # Total ticks spent in databus transfers
system.physmem.avgQLat                       23725.17                       # Average queueing delay per DRAM burst
system.physmem.avgBusLat                      5000.00                       # Average bus latency per DRAM burst
system.physmem.avgMemAccLat                  42475.17                       # Average memory access latency per DRAM burst
system.physmem.avgRdBW                           4.27                       # Average DRAM read bandwidth in MiByte/s
system.physmem.avgWrBW                           3.24                       # Average achieved write bandwidth in MiByte/s
system.physmem.avgRdBWSys                        4.07                       # Average system read bandwidth in MiByte/s
system.physmem.avgWrBWSys                        3.68                       # Average system write bandwidth in MiByte/s
system.physmem.peakBW                        12800.00                       # Theoretical peak bandwidth in MiByte/s
system.physmem.busUtil                           0.06                       # Data bus utilization in percentage
system.physmem.busUtilRead                       0.03                       # Data bus utilization in percentage for reads
system.physmem.busUtilWrite                      0.03                       # Data bus utilization in percentage for writes
system.physmem.avgRdQLen                         1.05                       # Average read queue length when enqueuing
system.physmem.avgWrQLen                        24.09                       # Average write queue length when enqueuing
system.physmem.readRowHits                     160412                       # Number of row buffer hits during reads
system.physmem.writeRowHits                     94279                       # Number of row buffer hits during writes
system.physmem.readRowHitRate                   83.85                       # Row buffer hit rate for reads
system.physmem.writeRowHitRate                  64.97                       # Row buffer hit rate for writes
system.physmem.avgGap                      7960231.97                       # Average gap between requests
system.physmem.pageHitRate                      75.70                       # Row buffer hit rate, read and write combined
system.physmem_0.actEnergy                  319183200                       # Energy for activate commands per rank (pJ)
system.physmem_0.preEnergy                  174157500                       # Energy for precharge commands per rank (pJ)
system.physmem_0.readEnergy                 788743800                       # Energy for read commands per rank (pJ)
system.physmem_0.writeEnergy                478904400                       # Energy for write commands per rank (pJ)
system.physmem_0.refreshEnergy           187361640960                       # Energy for refresh commands per rank (pJ)
system.physmem_0.actBackEnergy            83526196590                       # Energy for active background per rank (pJ)
system.physmem_0.preBackEnergy           1647879002250                       # Energy for precharge background per rank (pJ)
system.physmem_0.totalEnergy             1920527828700                       # Total energy per rank (pJ)
system.physmem_0.averagePower              669.504870                       # Core power per rank (mW)
system.physmem_0.memoryStateTime::IDLE   2741264066617                       # Time in different power states
system.physmem_0.memoryStateTime::REF     95788160000                       # Time in different power states
system.physmem_0.memoryStateTime::PRE_PDN            0                       # Time in different power states
system.physmem_0.memoryStateTime::ACT     31529102383                       # Time in different power states
system.physmem_0.memoryStateTime::ACT_PDN            0                       # Time in different power states
system.physmem_1.actEnergy                  298597320                       # Energy for activate commands per rank (pJ)
system.physmem_1.preEnergy                  162925125                       # Energy for precharge commands per rank (pJ)
system.physmem_1.readEnergy                 703505400                       # Energy for read commands per rank (pJ)
system.physmem_1.writeEnergy                461304720                       # Energy for write commands per rank (pJ)
system.physmem_1.refreshEnergy           187361640960                       # Energy for refresh commands per rank (pJ)
system.physmem_1.actBackEnergy            82377359595                       # Energy for active background per rank (pJ)
system.physmem_1.preBackEnergy           1648886754000                       # Energy for precharge background per rank (pJ)
system.physmem_1.totalEnergy             1920252087120                       # Total energy per rank (pJ)
system.physmem_1.averagePower              669.408745                       # Core power per rank (mW)
system.physmem_1.memoryStateTime::IDLE   2742945725805                       # Time in different power states
system.physmem_1.memoryStateTime::REF     95788160000                       # Time in different power states
system.physmem_1.memoryStateTime::PRE_PDN            0                       # Time in different power states
system.physmem_1.memoryStateTime::ACT     29845454195                       # Time in different power states
system.physmem_1.memoryStateTime::ACT_PDN            0                       # Time in different power states
system.realview.nvmem.bytes_read::cpu0.inst           20                       # Number of bytes read from this memory
system.realview.nvmem.bytes_read::cpu1.inst           48                       # Number of bytes read from this memory
system.realview.nvmem.bytes_read::total            68                       # Number of bytes read from this memory
system.realview.nvmem.bytes_inst_read::cpu0.inst           20                       # Number of instructions bytes read from this memory
system.realview.nvmem.bytes_inst_read::cpu1.inst           48                       # Number of instructions bytes read from this memory
system.realview.nvmem.bytes_inst_read::total           68                       # Number of instructions bytes read from this memory
system.realview.nvmem.num_reads::cpu0.inst            5                       # Number of read requests responded to by this memory
system.realview.nvmem.num_reads::cpu1.inst           12                       # Number of read requests responded to by this memory
system.realview.nvmem.num_reads::total             17                       # Number of read requests responded to by this memory
system.realview.nvmem.bw_read::cpu0.inst            7                       # Total read bandwidth from this memory (bytes/s)
system.realview.nvmem.bw_read::cpu1.inst           17                       # Total read bandwidth from this memory (bytes/s)
system.realview.nvmem.bw_read::total               24                       # Total read bandwidth from this memory (bytes/s)
system.realview.nvmem.bw_inst_read::cpu0.inst            7                       # Instruction read bandwidth from this memory (bytes/s)
system.realview.nvmem.bw_inst_read::cpu1.inst           17                       # Instruction read bandwidth from this memory (bytes/s)
system.realview.nvmem.bw_inst_read::total           24                       # Instruction read bandwidth from this memory (bytes/s)
system.realview.nvmem.bw_total::cpu0.inst            7                       # Total bandwidth to/from this memory (bytes/s)
system.realview.nvmem.bw_total::cpu1.inst           17                       # Total bandwidth to/from this memory (bytes/s)
system.realview.nvmem.bw_total::total              24                       # Total bandwidth to/from this memory (bytes/s)
system.cf0.dma_read_full_pages                      0                       # Number of full page size DMA reads (not PRD).
system.cf0.dma_read_bytes                        1024                       # Number of bytes transfered via DMA reads (not PRD).
system.cf0.dma_read_txs                             1                       # Number of DMA read transactions (not PRD).
system.cf0.dma_write_full_pages                   540                       # Number of full page size DMA writes.
system.cf0.dma_write_bytes                    2318336                       # Number of bytes transfered via DMA writes.
system.cf0.dma_write_txs                          631                       # Number of DMA write transactions.
system.cpu_clk_domain.clock                       500                       # Clock period in ticks
system.cpu0.dstage2_mmu.stage2_tlb.walker.walks            0                       # Table walker walks requested
system.cpu0.dstage2_mmu.stage2_tlb.walker.walkRequestOrigin_Requested::Data            0                       # Table walker requests started/completed, data/inst
system.cpu0.dstage2_mmu.stage2_tlb.walker.walkRequestOrigin_Requested::Inst            0                       # Table walker requests started/completed, data/inst
system.cpu0.dstage2_mmu.stage2_tlb.walker.walkRequestOrigin_Requested::total            0                       # Table walker requests started/completed, data/inst
system.cpu0.dstage2_mmu.stage2_tlb.walker.walkRequestOrigin_Completed::Data            0                       # Table walker requests started/completed, data/inst
system.cpu0.dstage2_mmu.stage2_tlb.walker.walkRequestOrigin_Completed::Inst            0                       # Table walker requests started/completed, data/inst
system.cpu0.dstage2_mmu.stage2_tlb.walker.walkRequestOrigin_Completed::total            0                       # Table walker requests started/completed, data/inst
system.cpu0.dstage2_mmu.stage2_tlb.walker.walkRequestOrigin::total            0                       # Table walker requests started/completed, data/inst
system.cpu0.dstage2_mmu.stage2_tlb.inst_hits            0                       # ITB inst hits
system.cpu0.dstage2_mmu.stage2_tlb.inst_misses            0                       # ITB inst misses
system.cpu0.dstage2_mmu.stage2_tlb.read_hits            0                       # DTB read hits
system.cpu0.dstage2_mmu.stage2_tlb.read_misses            0                       # DTB read misses
system.cpu0.dstage2_mmu.stage2_tlb.write_hits            0                       # DTB write hits
system.cpu0.dstage2_mmu.stage2_tlb.write_misses            0                       # DTB write misses
system.cpu0.dstage2_mmu.stage2_tlb.flush_tlb            0                       # Number of times complete TLB was flushed
system.cpu0.dstage2_mmu.stage2_tlb.flush_tlb_mva            0                       # Number of times TLB was flushed by MVA
system.cpu0.dstage2_mmu.stage2_tlb.flush_tlb_mva_asid            0                       # Number of times TLB was flushed by MVA & ASID
system.cpu0.dstage2_mmu.stage2_tlb.flush_tlb_asid            0                       # Number of times TLB was flushed by ASID
system.cpu0.dstage2_mmu.stage2_tlb.flush_entries            0                       # Number of entries that have been flushed from TLB
system.cpu0.dstage2_mmu.stage2_tlb.align_faults            0                       # Number of TLB faults due to alignment restrictions
system.cpu0.dstage2_mmu.stage2_tlb.prefetch_faults            0                       # Number of TLB faults due to prefetch
system.cpu0.dstage2_mmu.stage2_tlb.domain_faults            0                       # Number of TLB faults due to domain restrictions
system.cpu0.dstage2_mmu.stage2_tlb.perms_faults            0                       # Number of TLB faults due to permissions restrictions
system.cpu0.dstage2_mmu.stage2_tlb.read_accesses            0                       # DTB read accesses
system.cpu0.dstage2_mmu.stage2_tlb.write_accesses            0                       # DTB write accesses
system.cpu0.dstage2_mmu.stage2_tlb.inst_accesses            0                       # ITB inst accesses
system.cpu0.dstage2_mmu.stage2_tlb.hits             0                       # DTB hits
system.cpu0.dstage2_mmu.stage2_tlb.misses            0                       # DTB misses
system.cpu0.dstage2_mmu.stage2_tlb.accesses            0                       # DTB accesses
system.cpu0.dtb.walker.walks                     7634                       # Table walker walks requested
system.cpu0.dtb.walker.walksShort                7634                       # Table walker walks initiated with short descriptors
system.cpu0.dtb.walker.walksShortTerminationLevel::Level1         1372                       # Level at which table walker walks with short descriptors terminate
system.cpu0.dtb.walker.walksShortTerminationLevel::Level2         6262                       # Level at which table walker walks with short descriptors terminate
system.cpu0.dtb.walker.walkWaitTime::samples         7634                       # Table walker wait (enqueue to first request) latency
system.cpu0.dtb.walker.walkWaitTime::0           7634    100.00%    100.00% # Table walker wait (enqueue to first request) latency
system.cpu0.dtb.walker.walkWaitTime::total         7634                       # Table walker wait (enqueue to first request) latency
system.cpu0.dtb.walker.walkCompletionTime::samples         6240                       # Table walker service (enqueue to completion) latency
system.cpu0.dtb.walker.walkCompletionTime::mean  9567.588141                       # Table walker service (enqueue to completion) latency
system.cpu0.dtb.walker.walkCompletionTime::gmean  8440.173252                       # Table walker service (enqueue to completion) latency
system.cpu0.dtb.walker.walkCompletionTime::stdev  5686.595019                       # Table walker service (enqueue to completion) latency
system.cpu0.dtb.walker.walkCompletionTime::0-16383         6084     97.50%     97.50% # Table walker service (enqueue to completion) latency
system.cpu0.dtb.walker.walkCompletionTime::16384-32767          143      2.29%     99.79% # Table walker service (enqueue to completion) latency
system.cpu0.dtb.walker.walkCompletionTime::32768-49151            8      0.13%     99.92% # Table walker service (enqueue to completion) latency
system.cpu0.dtb.walker.walkCompletionTime::49152-65535            1      0.02%     99.94% # Table walker service (enqueue to completion) latency
system.cpu0.dtb.walker.walkCompletionTime::81920-98303            3      0.05%     99.98% # Table walker service (enqueue to completion) latency
system.cpu0.dtb.walker.walkCompletionTime::196608-212991            1      0.02%    100.00% # Table walker service (enqueue to completion) latency
system.cpu0.dtb.walker.walkCompletionTime::total         6240                       # Table walker service (enqueue to completion) latency
system.cpu0.dtb.walker.walksPending::samples   1121059000                       # Table walker pending requests distribution
system.cpu0.dtb.walker.walksPending::0     1121059000    100.00%    100.00% # Table walker pending requests distribution
system.cpu0.dtb.walker.walksPending::total   1121059000                       # Table walker pending requests distribution
system.cpu0.dtb.walker.walkPageSizes::4K         4907     78.64%     78.64% # Table walker page sizes translated
system.cpu0.dtb.walker.walkPageSizes::1M         1333     21.36%    100.00% # Table walker page sizes translated
system.cpu0.dtb.walker.walkPageSizes::total         6240                       # Table walker page sizes translated
system.cpu0.dtb.walker.walkRequestOrigin_Requested::Data         7634                       # Table walker requests started/completed, data/inst
system.cpu0.dtb.walker.walkRequestOrigin_Requested::Inst            0                       # Table walker requests started/completed, data/inst
system.cpu0.dtb.walker.walkRequestOrigin_Requested::total         7634                       # Table walker requests started/completed, data/inst
system.cpu0.dtb.walker.walkRequestOrigin_Completed::Data         6240                       # Table walker requests started/completed, data/inst
system.cpu0.dtb.walker.walkRequestOrigin_Completed::Inst            0                       # Table walker requests started/completed, data/inst
system.cpu0.dtb.walker.walkRequestOrigin_Completed::total         6240                       # Table walker requests started/completed, data/inst
system.cpu0.dtb.walker.walkRequestOrigin::total        13874                       # Table walker requests started/completed, data/inst
system.cpu0.dtb.inst_hits                           0                       # ITB inst hits
system.cpu0.dtb.inst_misses                         0                       # ITB inst misses
system.cpu0.dtb.read_hits                    25111402                       # DTB read hits
system.cpu0.dtb.read_misses                      6533                       # DTB read misses
system.cpu0.dtb.write_hits                   18719047                       # DTB write hits
system.cpu0.dtb.write_misses                     1101                       # DTB write misses
system.cpu0.dtb.flush_tlb                          66                       # Number of times complete TLB was flushed
system.cpu0.dtb.flush_tlb_mva                     917                       # Number of times TLB was flushed by MVA
system.cpu0.dtb.flush_tlb_mva_asid                  0                       # Number of times TLB was flushed by MVA & ASID
system.cpu0.dtb.flush_tlb_asid                      0                       # Number of times TLB was flushed by ASID
system.cpu0.dtb.flush_entries                    3405                       # Number of entries that have been flushed from TLB
system.cpu0.dtb.align_faults                        0                       # Number of TLB faults due to alignment restrictions
system.cpu0.dtb.prefetch_faults                  1785                       # Number of TLB faults due to prefetch
system.cpu0.dtb.domain_faults                       0                       # Number of TLB faults due to domain restrictions
system.cpu0.dtb.perms_faults                      282                       # Number of TLB faults due to permissions restrictions
system.cpu0.dtb.read_accesses                25117935                       # DTB read accesses
system.cpu0.dtb.write_accesses               18720148                       # DTB write accesses
system.cpu0.dtb.inst_accesses                       0                       # ITB inst accesses
system.cpu0.dtb.hits                         43830449                       # DTB hits
system.cpu0.dtb.misses                           7634                       # DTB misses
system.cpu0.dtb.accesses                     43838083                       # DTB accesses
system.cpu0.istage2_mmu.stage2_tlb.walker.walks            0                       # Table walker walks requested
system.cpu0.istage2_mmu.stage2_tlb.walker.walkRequestOrigin_Requested::Data            0                       # Table walker requests started/completed, data/inst
system.cpu0.istage2_mmu.stage2_tlb.walker.walkRequestOrigin_Requested::Inst            0                       # Table walker requests started/completed, data/inst
system.cpu0.istage2_mmu.stage2_tlb.walker.walkRequestOrigin_Requested::total            0                       # Table walker requests started/completed, data/inst
system.cpu0.istage2_mmu.stage2_tlb.walker.walkRequestOrigin_Completed::Data            0                       # Table walker requests started/completed, data/inst
system.cpu0.istage2_mmu.stage2_tlb.walker.walkRequestOrigin_Completed::Inst            0                       # Table walker requests started/completed, data/inst
system.cpu0.istage2_mmu.stage2_tlb.walker.walkRequestOrigin_Completed::total            0                       # Table walker requests started/completed, data/inst
system.cpu0.istage2_mmu.stage2_tlb.walker.walkRequestOrigin::total            0                       # Table walker requests started/completed, data/inst
system.cpu0.istage2_mmu.stage2_tlb.inst_hits            0                       # ITB inst hits
system.cpu0.istage2_mmu.stage2_tlb.inst_misses            0                       # ITB inst misses
system.cpu0.istage2_mmu.stage2_tlb.read_hits            0                       # DTB read hits
system.cpu0.istage2_mmu.stage2_tlb.read_misses            0                       # DTB read misses
system.cpu0.istage2_mmu.stage2_tlb.write_hits            0                       # DTB write hits
system.cpu0.istage2_mmu.stage2_tlb.write_misses            0                       # DTB write misses
system.cpu0.istage2_mmu.stage2_tlb.flush_tlb            0                       # Number of times complete TLB was flushed
system.cpu0.istage2_mmu.stage2_tlb.flush_tlb_mva            0                       # Number of times TLB was flushed by MVA
system.cpu0.istage2_mmu.stage2_tlb.flush_tlb_mva_asid            0                       # Number of times TLB was flushed by MVA & ASID
system.cpu0.istage2_mmu.stage2_tlb.flush_tlb_asid            0                       # Number of times TLB was flushed by ASID
system.cpu0.istage2_mmu.stage2_tlb.flush_entries            0                       # Number of entries that have been flushed from TLB
system.cpu0.istage2_mmu.stage2_tlb.align_faults            0                       # Number of TLB faults due to alignment restrictions
system.cpu0.istage2_mmu.stage2_tlb.prefetch_faults            0                       # Number of TLB faults due to prefetch
system.cpu0.istage2_mmu.stage2_tlb.domain_faults            0                       # Number of TLB faults due to domain restrictions
system.cpu0.istage2_mmu.stage2_tlb.perms_faults            0                       # Number of TLB faults due to permissions restrictions
system.cpu0.istage2_mmu.stage2_tlb.read_accesses            0                       # DTB read accesses
system.cpu0.istage2_mmu.stage2_tlb.write_accesses            0                       # DTB write accesses
system.cpu0.istage2_mmu.stage2_tlb.inst_accesses            0                       # ITB inst accesses
system.cpu0.istage2_mmu.stage2_tlb.hits             0                       # DTB hits
system.cpu0.istage2_mmu.stage2_tlb.misses            0                       # DTB misses
system.cpu0.istage2_mmu.stage2_tlb.accesses            0                       # DTB accesses
system.cpu0.itb.walker.walks                     3348                       # Table walker walks requested
system.cpu0.itb.walker.walksShort                3348                       # Table walker walks initiated with short descriptors
system.cpu0.itb.walker.walksShortTerminationLevel::Level1          298                       # Level at which table walker walks with short descriptors terminate
system.cpu0.itb.walker.walksShortTerminationLevel::Level2         3050                       # Level at which table walker walks with short descriptors terminate
system.cpu0.itb.walker.walkWaitTime::samples         3348                       # Table walker wait (enqueue to first request) latency
system.cpu0.itb.walker.walkWaitTime::0           3348    100.00%    100.00% # Table walker wait (enqueue to first request) latency
system.cpu0.itb.walker.walkWaitTime::total         3348                       # Table walker wait (enqueue to first request) latency
system.cpu0.itb.walker.walkCompletionTime::samples         2332                       # Table walker service (enqueue to completion) latency
system.cpu0.itb.walker.walkCompletionTime::mean  9914.451115                       # Table walker service (enqueue to completion) latency
system.cpu0.itb.walker.walkCompletionTime::gmean  8640.132285                       # Table walker service (enqueue to completion) latency
system.cpu0.itb.walker.walkCompletionTime::stdev  5844.480359                       # Table walker service (enqueue to completion) latency
system.cpu0.itb.walker.walkCompletionTime::0-8191          848     36.36%     36.36% # Table walker service (enqueue to completion) latency
system.cpu0.itb.walker.walkCompletionTime::8192-16383         1427     61.19%     97.56% # Table walker service (enqueue to completion) latency
system.cpu0.itb.walker.walkCompletionTime::16384-24575            3      0.13%     97.68% # Table walker service (enqueue to completion) latency
system.cpu0.itb.walker.walkCompletionTime::24576-32767           51      2.19%     99.87% # Table walker service (enqueue to completion) latency
system.cpu0.itb.walker.walkCompletionTime::40960-49151            1      0.04%     99.91% # Table walker service (enqueue to completion) latency
system.cpu0.itb.walker.walkCompletionTime::90112-98303            1      0.04%     99.96% # Table walker service (enqueue to completion) latency
system.cpu0.itb.walker.walkCompletionTime::114688-122879            1      0.04%    100.00% # Table walker service (enqueue to completion) latency
system.cpu0.itb.walker.walkCompletionTime::total         2332                       # Table walker service (enqueue to completion) latency
system.cpu0.itb.walker.walksPending::samples   1120687000                       # Table walker pending requests distribution
system.cpu0.itb.walker.walksPending::0     1120687000    100.00%    100.00% # Table walker pending requests distribution
system.cpu0.itb.walker.walksPending::total   1120687000                       # Table walker pending requests distribution
system.cpu0.itb.walker.walkPageSizes::4K         2034     87.22%     87.22% # Table walker page sizes translated
system.cpu0.itb.walker.walkPageSizes::1M          298     12.78%    100.00% # Table walker page sizes translated
system.cpu0.itb.walker.walkPageSizes::total         2332                       # Table walker page sizes translated
system.cpu0.itb.walker.walkRequestOrigin_Requested::Data            0                       # Table walker requests started/completed, data/inst
system.cpu0.itb.walker.walkRequestOrigin_Requested::Inst         3348                       # Table walker requests started/completed, data/inst
system.cpu0.itb.walker.walkRequestOrigin_Requested::total         3348                       # Table walker requests started/completed, data/inst
system.cpu0.itb.walker.walkRequestOrigin_Completed::Data            0                       # Table walker requests started/completed, data/inst
system.cpu0.itb.walker.walkRequestOrigin_Completed::Inst         2332                       # Table walker requests started/completed, data/inst
system.cpu0.itb.walker.walkRequestOrigin_Completed::total         2332                       # Table walker requests started/completed, data/inst
system.cpu0.itb.walker.walkRequestOrigin::total         5680                       # Table walker requests started/completed, data/inst
system.cpu0.itb.inst_hits                   118783416                       # ITB inst hits
system.cpu0.itb.inst_misses                      3348                       # ITB inst misses
system.cpu0.itb.read_hits                           0                       # DTB read hits
system.cpu0.itb.read_misses                         0                       # DTB read misses
system.cpu0.itb.write_hits                          0                       # DTB write hits
system.cpu0.itb.write_misses                        0                       # DTB write misses
system.cpu0.itb.flush_tlb                          66                       # Number of times complete TLB was flushed
system.cpu0.itb.flush_tlb_mva                     917                       # Number of times TLB was flushed by MVA
system.cpu0.itb.flush_tlb_mva_asid                  0                       # Number of times TLB was flushed by MVA & ASID
system.cpu0.itb.flush_tlb_asid                      0                       # Number of times TLB was flushed by ASID
system.cpu0.itb.flush_entries                    2150                       # Number of entries that have been flushed from TLB
system.cpu0.itb.align_faults                        0                       # Number of TLB faults due to alignment restrictions
system.cpu0.itb.prefetch_faults                     0                       # Number of TLB faults due to prefetch
system.cpu0.itb.domain_faults                       0                       # Number of TLB faults due to domain restrictions
system.cpu0.itb.perms_faults                        0                       # Number of TLB faults due to permissions restrictions
system.cpu0.itb.read_accesses                       0                       # DTB read accesses
system.cpu0.itb.write_accesses                      0                       # DTB write accesses
system.cpu0.itb.inst_accesses               118786764                       # ITB inst accesses
system.cpu0.itb.hits                        118783416                       # DTB hits
system.cpu0.itb.misses                           3348                       # DTB misses
system.cpu0.itb.accesses                    118786764                       # DTB accesses
system.cpu0.numCycles                      5737162881                       # number of cpu cycles simulated
system.cpu0.numWorkItemsStarted                     0                       # number of work items this cpu started
system.cpu0.numWorkItemsCompleted                   0                       # number of work items this cpu completed
system.cpu0.committedInsts                  115118664                       # Number of instructions committed
system.cpu0.committedOps                    139117689                       # Number of ops (including micro ops) committed
system.cpu0.num_int_alu_accesses            123147620                       # Number of integer alu accesses
system.cpu0.num_fp_alu_accesses                  9820                       # Number of float alu accesses
system.cpu0.num_func_calls                   12673072                       # number of times a function call or return occured
system.cpu0.num_conditional_control_insts     15652345                       # number of instructions that are conditional controls
system.cpu0.num_int_insts                   123147620                       # number of integer instructions
system.cpu0.num_fp_insts                         9820                       # number of float instructions
system.cpu0.num_int_register_reads          226729132                       # number of times the integer registers were read
system.cpu0.num_int_register_writes          85574900                       # number of times the integer registers were written
system.cpu0.num_fp_register_reads                7560                       # number of times the floating registers were read
system.cpu0.num_fp_register_writes               2264                       # number of times the floating registers were written
system.cpu0.num_cc_register_reads           504016583                       # number of times the CC registers were read
system.cpu0.num_cc_register_writes           52146919                       # number of times the CC registers were written
system.cpu0.num_mem_refs                     44965604                       # number of memory refs
system.cpu0.num_load_insts                   25362826                       # Number of load instructions
system.cpu0.num_store_insts                  19602778                       # Number of store instructions
system.cpu0.num_idle_cycles              5466015382.984095                       # Number of idle cycles
system.cpu0.num_busy_cycles              271147498.015905                       # Number of busy cycles
system.cpu0.not_idle_fraction                0.047262                       # Percentage of non-idle cycles
system.cpu0.idle_fraction                    0.952738                       # Percentage of idle cycles
system.cpu0.Branches                         29061799                       # Number of branches fetched
system.cpu0.op_class::No_OpClass                 2273      0.00%      0.00% # Class of executed instruction
system.cpu0.op_class::IntAlu                 97796607     68.45%     68.45% # Class of executed instruction
system.cpu0.op_class::IntMult                  109233      0.08%     68.52% # Class of executed instruction
system.cpu0.op_class::IntDiv                        0      0.00%     68.52% # Class of executed instruction
system.cpu0.op_class::FloatAdd                      0      0.00%     68.52% # Class of executed instruction
system.cpu0.op_class::FloatCmp                      0      0.00%     68.52% # Class of executed instruction
system.cpu0.op_class::FloatCvt                      0      0.00%     68.52% # Class of executed instruction
system.cpu0.op_class::FloatMult                     0      0.00%     68.52% # Class of executed instruction
system.cpu0.op_class::FloatDiv                      0      0.00%     68.52% # Class of executed instruction
system.cpu0.op_class::FloatSqrt                     0      0.00%     68.52% # Class of executed instruction
system.cpu0.op_class::SimdAdd                       0      0.00%     68.52% # Class of executed instruction
system.cpu0.op_class::SimdAddAcc                    0      0.00%     68.52% # Class of executed instruction
system.cpu0.op_class::SimdAlu                       0      0.00%     68.52% # Class of executed instruction
system.cpu0.op_class::SimdCmp                       0      0.00%     68.52% # Class of executed instruction
system.cpu0.op_class::SimdCvt                       0      0.00%     68.52% # Class of executed instruction
system.cpu0.op_class::SimdMisc                      0      0.00%     68.52% # Class of executed instruction
system.cpu0.op_class::SimdMult                      0      0.00%     68.52% # Class of executed instruction
system.cpu0.op_class::SimdMultAcc                   0      0.00%     68.52% # Class of executed instruction
system.cpu0.op_class::SimdShift                     0      0.00%     68.52% # Class of executed instruction
system.cpu0.op_class::SimdShiftAcc                  0      0.00%     68.52% # Class of executed instruction
system.cpu0.op_class::SimdSqrt                      0      0.00%     68.52% # Class of executed instruction
system.cpu0.op_class::SimdFloatAdd                  0      0.00%     68.52% # Class of executed instruction
system.cpu0.op_class::SimdFloatAlu                  0      0.00%     68.52% # Class of executed instruction
system.cpu0.op_class::SimdFloatCmp                  0      0.00%     68.52% # Class of executed instruction
system.cpu0.op_class::SimdFloatCvt                  0      0.00%     68.52% # Class of executed instruction
system.cpu0.op_class::SimdFloatDiv                  0      0.00%     68.52% # Class of executed instruction
system.cpu0.op_class::SimdFloatMisc              8187      0.01%     68.53% # Class of executed instruction
system.cpu0.op_class::SimdFloatMult                 0      0.00%     68.53% # Class of executed instruction
system.cpu0.op_class::SimdFloatMultAcc              0      0.00%     68.53% # Class of executed instruction
system.cpu0.op_class::SimdFloatSqrt                 0      0.00%     68.53% # Class of executed instruction
system.cpu0.op_class::MemRead                25362826     17.75%     86.28% # Class of executed instruction
system.cpu0.op_class::MemWrite               19602778     13.72%    100.00% # Class of executed instruction
system.cpu0.op_class::IprAccess                     0      0.00%    100.00% # Class of executed instruction
system.cpu0.op_class::InstPrefetch                  0      0.00%    100.00% # Class of executed instruction
system.cpu0.op_class::total                 142881904                       # Class of executed instruction
system.cpu0.kern.inst.arm                           0                       # number of arm instructions executed
system.cpu0.kern.inst.quiesce                    1874                       # number of quiesce instructions executed
system.cpu0.dcache.tags.replacements           688886                       # number of replacements
system.cpu0.dcache.tags.tagsinuse          494.817079                       # Cycle average of tags in use
system.cpu0.dcache.tags.total_refs           42962889                       # Total number of references to valid blocks.
system.cpu0.dcache.tags.sampled_refs           689398                       # Sample count of references to valid blocks.
system.cpu0.dcache.tags.avg_refs            62.319428                       # Average number of references to valid blocks.
system.cpu0.dcache.tags.warmup_cycle       1149671500                       # Cycle when the warmup percentage was hit.
system.cpu0.dcache.tags.occ_blocks::cpu0.data   494.817079                       # Average occupied blocks per requestor
system.cpu0.dcache.tags.occ_percent::cpu0.data     0.966440                       # Average percentage of cache occupancy
system.cpu0.dcache.tags.occ_percent::total     0.966440                       # Average percentage of cache occupancy
system.cpu0.dcache.tags.occ_task_id_blocks::1024          512                       # Occupied blocks per task id
system.cpu0.dcache.tags.age_task_id_blocks_1024::0          110                       # Occupied blocks per task id
system.cpu0.dcache.tags.age_task_id_blocks_1024::1          286                       # Occupied blocks per task id
system.cpu0.dcache.tags.age_task_id_blocks_1024::2          116                       # Occupied blocks per task id
system.cpu0.dcache.tags.occ_task_id_percent::1024            1                       # Percentage of cache occupancy per task id
system.cpu0.dcache.tags.tag_accesses         88293922                       # Number of tag accesses
system.cpu0.dcache.tags.data_accesses        88293922                       # Number of data accesses
system.cpu0.dcache.ReadReq_hits::cpu0.data     23854264                       # number of ReadReq hits
system.cpu0.dcache.ReadReq_hits::total       23854264                       # number of ReadReq hits
system.cpu0.dcache.WriteReq_hits::cpu0.data     17989541                       # number of WriteReq hits
system.cpu0.dcache.WriteReq_hits::total      17989541                       # number of WriteReq hits
system.cpu0.dcache.SoftPFReq_hits::cpu0.data       318725                       # number of SoftPFReq hits
system.cpu0.dcache.SoftPFReq_hits::total       318725                       # number of SoftPFReq hits
system.cpu0.dcache.LoadLockedReq_hits::cpu0.data       364533                       # number of LoadLockedReq hits
system.cpu0.dcache.LoadLockedReq_hits::total       364533                       # number of LoadLockedReq hits
system.cpu0.dcache.StoreCondReq_hits::cpu0.data       361797                       # number of StoreCondReq hits
system.cpu0.dcache.StoreCondReq_hits::total       361797                       # number of StoreCondReq hits
system.cpu0.dcache.demand_hits::cpu0.data     41843805                       # number of demand (read+write) hits
system.cpu0.dcache.demand_hits::total        41843805                       # number of demand (read+write) hits
system.cpu0.dcache.overall_hits::cpu0.data     42162530                       # number of overall hits
system.cpu0.dcache.overall_hits::total       42162530                       # number of overall hits
system.cpu0.dcache.ReadReq_misses::cpu0.data       393288                       # number of ReadReq misses
system.cpu0.dcache.ReadReq_misses::total       393288                       # number of ReadReq misses
system.cpu0.dcache.WriteReq_misses::cpu0.data       323540                       # number of WriteReq misses
system.cpu0.dcache.WriteReq_misses::total       323540                       # number of WriteReq misses
system.cpu0.dcache.SoftPFReq_misses::cpu0.data       127427                       # number of SoftPFReq misses
system.cpu0.dcache.SoftPFReq_misses::total       127427                       # number of SoftPFReq misses
system.cpu0.dcache.LoadLockedReq_misses::cpu0.data        21927                       # number of LoadLockedReq misses
system.cpu0.dcache.LoadLockedReq_misses::total        21927                       # number of LoadLockedReq misses
system.cpu0.dcache.StoreCondReq_misses::cpu0.data        19722                       # number of StoreCondReq misses
system.cpu0.dcache.StoreCondReq_misses::total        19722                       # number of StoreCondReq misses
system.cpu0.dcache.demand_misses::cpu0.data       716828                       # number of demand (read+write) misses
system.cpu0.dcache.demand_misses::total        716828                       # number of demand (read+write) misses
system.cpu0.dcache.overall_misses::cpu0.data       844255                       # number of overall misses
system.cpu0.dcache.overall_misses::total       844255                       # number of overall misses
system.cpu0.dcache.ReadReq_miss_latency::cpu0.data   5012719236                       # number of ReadReq miss cycles
system.cpu0.dcache.ReadReq_miss_latency::total   5012719236                       # number of ReadReq miss cycles
system.cpu0.dcache.WriteReq_miss_latency::cpu0.data   5098069375                       # number of WriteReq miss cycles
system.cpu0.dcache.WriteReq_miss_latency::total   5098069375                       # number of WriteReq miss cycles
system.cpu0.dcache.LoadLockedReq_miss_latency::cpu0.data    332035250                       # number of LoadLockedReq miss cycles
system.cpu0.dcache.LoadLockedReq_miss_latency::total    332035250                       # number of LoadLockedReq miss cycles
system.cpu0.dcache.StoreCondReq_miss_latency::cpu0.data    435652050                       # number of StoreCondReq miss cycles
system.cpu0.dcache.StoreCondReq_miss_latency::total    435652050                       # number of StoreCondReq miss cycles
system.cpu0.dcache.StoreCondFailReq_miss_latency::cpu0.data      1835500                       # number of StoreCondFailReq miss cycles
system.cpu0.dcache.StoreCondFailReq_miss_latency::total      1835500                       # number of StoreCondFailReq miss cycles
system.cpu0.dcache.demand_miss_latency::cpu0.data  10110788611                       # number of demand (read+write) miss cycles
system.cpu0.dcache.demand_miss_latency::total  10110788611                       # number of demand (read+write) miss cycles
system.cpu0.dcache.overall_miss_latency::cpu0.data  10110788611                       # number of overall miss cycles
system.cpu0.dcache.overall_miss_latency::total  10110788611                       # number of overall miss cycles
system.cpu0.dcache.ReadReq_accesses::cpu0.data     24247552                       # number of ReadReq accesses(hits+misses)
system.cpu0.dcache.ReadReq_accesses::total     24247552                       # number of ReadReq accesses(hits+misses)
system.cpu0.dcache.WriteReq_accesses::cpu0.data     18313081                       # number of WriteReq accesses(hits+misses)
system.cpu0.dcache.WriteReq_accesses::total     18313081                       # number of WriteReq accesses(hits+misses)
system.cpu0.dcache.SoftPFReq_accesses::cpu0.data       446152                       # number of SoftPFReq accesses(hits+misses)
system.cpu0.dcache.SoftPFReq_accesses::total       446152                       # number of SoftPFReq accesses(hits+misses)
system.cpu0.dcache.LoadLockedReq_accesses::cpu0.data       386460                       # number of LoadLockedReq accesses(hits+misses)
system.cpu0.dcache.LoadLockedReq_accesses::total       386460                       # number of LoadLockedReq accesses(hits+misses)
system.cpu0.dcache.StoreCondReq_accesses::cpu0.data       381519                       # number of StoreCondReq accesses(hits+misses)
system.cpu0.dcache.StoreCondReq_accesses::total       381519                       # number of StoreCondReq accesses(hits+misses)
system.cpu0.dcache.demand_accesses::cpu0.data     42560633                       # number of demand (read+write) accesses
system.cpu0.dcache.demand_accesses::total     42560633                       # number of demand (read+write) accesses
system.cpu0.dcache.overall_accesses::cpu0.data     43006785                       # number of overall (read+write) accesses
system.cpu0.dcache.overall_accesses::total     43006785                       # number of overall (read+write) accesses
system.cpu0.dcache.ReadReq_miss_rate::cpu0.data     0.016220                       # miss rate for ReadReq accesses
system.cpu0.dcache.ReadReq_miss_rate::total     0.016220                       # miss rate for ReadReq accesses
system.cpu0.dcache.WriteReq_miss_rate::cpu0.data     0.017667                       # miss rate for WriteReq accesses
system.cpu0.dcache.WriteReq_miss_rate::total     0.017667                       # miss rate for WriteReq accesses
system.cpu0.dcache.SoftPFReq_miss_rate::cpu0.data     0.285613                       # miss rate for SoftPFReq accesses
system.cpu0.dcache.SoftPFReq_miss_rate::total     0.285613                       # miss rate for SoftPFReq accesses
[...]
system.l2c.ReadReq_avg_mshr_miss_latency::cpu1.l2cache.prefetcher 101473.138812                       # average ReadReq mshr miss latency
system.l2c.ReadReq_avg_mshr_miss_latency::total 83286.026000                       # average ReadReq mshr miss latency
system.l2c.UpgradeReq_avg_mshr_miss_latency::cpu0.data 17849.231729                       # average UpgradeReq mshr miss latency
system.l2c.UpgradeReq_avg_mshr_miss_latency::cpu1.data 17823.284639                       # average UpgradeReq mshr miss latency
system.l2c.UpgradeReq_avg_mshr_miss_latency::total 17843.097730                       # average UpgradeReq mshr miss latency
system.l2c.SCUpgradeReq_avg_mshr_miss_latency::cpu0.data 17983.333333                       # average SCUpgradeReq mshr miss latency
system.l2c.SCUpgradeReq_avg_mshr_miss_latency::cpu1.data 17803.297940                       # average SCUpgradeReq mshr miss latency
system.l2c.SCUpgradeReq_avg_mshr_miss_latency::total 17850.852478                       # average SCUpgradeReq mshr miss latency
system.l2c.ReadExReq_avg_mshr_miss_latency::cpu0.data 76674.395959                       # average ReadExReq mshr miss latency
system.l2c.ReadExReq_avg_mshr_miss_latency::cpu1.data 67752.447505                       # average ReadExReq mshr miss latency
system.l2c.ReadExReq_avg_mshr_miss_latency::total 73210.363422                       # average ReadExReq mshr miss latency
system.l2c.demand_avg_mshr_miss_latency::cpu0.dtb.walker 66035.714286                       # average overall mshr miss latency
system.l2c.demand_avg_mshr_miss_latency::cpu0.itb.walker        70000                       # average overall mshr miss latency
system.l2c.demand_avg_mshr_miss_latency::cpu0.inst 68265.422333                       # average overall mshr miss latency
system.l2c.demand_avg_mshr_miss_latency::cpu0.data 75486.277254                       # average overall mshr miss latency
system.l2c.demand_avg_mshr_miss_latency::cpu0.l2cache.prefetcher 85428.867784                       # average overall mshr miss latency
system.l2c.demand_avg_mshr_miss_latency::cpu1.inst 70204.097039                       # average overall mshr miss latency
system.l2c.demand_avg_mshr_miss_latency::cpu1.data 68550.330925                       # average overall mshr miss latency
system.l2c.demand_avg_mshr_miss_latency::cpu1.l2cache.prefetcher 101473.138812                       # average overall mshr miss latency
system.l2c.demand_avg_mshr_miss_latency::total 82323.775633                       # average overall mshr miss latency
system.l2c.overall_avg_mshr_miss_latency::cpu0.dtb.walker 66035.714286                       # average overall mshr miss latency
system.l2c.overall_avg_mshr_miss_latency::cpu0.itb.walker        70000                       # average overall mshr miss latency
system.l2c.overall_avg_mshr_miss_latency::cpu0.inst 68265.422333                       # average overall mshr miss latency
system.l2c.overall_avg_mshr_miss_latency::cpu0.data 75486.277254                       # average overall mshr miss latency
system.l2c.overall_avg_mshr_miss_latency::cpu0.l2cache.prefetcher 85428.867784                       # average overall mshr miss latency
system.l2c.overall_avg_mshr_miss_latency::cpu1.inst 70204.097039                       # average overall mshr miss latency
system.l2c.overall_avg_mshr_miss_latency::cpu1.data 68550.330925                       # average overall mshr miss latency
system.l2c.overall_avg_mshr_miss_latency::cpu1.l2cache.prefetcher 101473.138812                       # average overall mshr miss latency
system.l2c.overall_avg_mshr_miss_latency::total 82323.775633                       # average overall mshr miss latency
system.l2c.ReadReq_avg_mshr_uncacheable_latency::cpu0.inst          inf                       # average ReadReq mshr uncacheable latency
system.l2c.ReadReq_avg_mshr_uncacheable_latency::cpu0.data          inf                       # average ReadReq mshr uncacheable latency
system.l2c.ReadReq_avg_mshr_uncacheable_latency::cpu1.inst          inf                       # average ReadReq mshr uncacheable latency
system.l2c.ReadReq_avg_mshr_uncacheable_latency::cpu1.data          inf                       # average ReadReq mshr uncacheable latency
system.l2c.ReadReq_avg_mshr_uncacheable_latency::total          inf                       # average ReadReq mshr uncacheable latency
system.l2c.WriteReq_avg_mshr_uncacheable_latency::cpu0.data          inf                       # average WriteReq mshr uncacheable latency
system.l2c.WriteReq_avg_mshr_uncacheable_latency::cpu1.data          inf                       # average WriteReq mshr uncacheable latency
system.l2c.WriteReq_avg_mshr_uncacheable_latency::total          inf                       # average WriteReq mshr uncacheable latency
system.l2c.overall_avg_mshr_uncacheable_latency::cpu0.inst          inf                       # average overall mshr uncacheable latency
system.l2c.overall_avg_mshr_uncacheable_latency::cpu0.data          inf                       # average overall mshr uncacheable latency
system.l2c.overall_avg_mshr_uncacheable_latency::cpu1.inst          inf                       # average overall mshr uncacheable latency
system.l2c.overall_avg_mshr_uncacheable_latency::cpu1.data          inf                       # average overall mshr uncacheable latency
system.l2c.overall_avg_mshr_uncacheable_latency::total          inf                       # average overall mshr uncacheable latency
system.l2c.no_allocate_misses                       0                       # Number of misses that were no-allocate
system.membus.trans_dist::ReadReq              209058                       # Transaction distribution
system.membus.trans_dist::ReadResp             209058                       # Transaction distribution
system.membus.trans_dist::WriteReq              30943                       # Transaction distribution
system.membus.trans_dist::WriteResp             30943                       # Transaction distribution
system.membus.trans_dist::Writeback            128256                       # Transaction distribution
system.membus.trans_dist::WriteInvalidateReq        36224                       # Transaction distribution
system.membus.trans_dist::WriteInvalidateResp        36224                       # Transaction distribution
system.membus.trans_dist::UpgradeReq            77066                       # Transaction distribution
system.membus.trans_dist::SCUpgradeReq          40095                       # Transaction distribution
system.membus.trans_dist::UpgradeResp           13060                       # Transaction distribution
system.membus.trans_dist::SCUpgradeFailReq           49                       # Transaction distribution
system.membus.trans_dist::ReadExReq             37613                       # Transaction distribution
system.membus.trans_dist::ReadExResp            17283                       # Transaction distribution
system.membus.pkt_count_system.l2c.mem_side::system.bridge.slave       107918                       # Packet count per connected master and slave (bytes)
system.membus.pkt_count_system.l2c.mem_side::system.realview.nvmem.port           34                       # Packet count per connected master and slave (bytes)
system.membus.pkt_count_system.l2c.mem_side::system.realview.gic.pio        13672                       # Packet count per connected master and slave (bytes)
system.membus.pkt_count_system.l2c.mem_side::system.physmem.port       634735                       # Packet count per connected master and slave (bytes)
system.membus.pkt_count_system.l2c.mem_side::total       756359                       # Packet count per connected master and slave (bytes)
system.membus.pkt_count_system.iocache.mem_side::system.physmem.port       108908                       # Packet count per connected master and slave (bytes)
system.membus.pkt_count_system.iocache.mem_side::total       108908                       # Packet count per connected master and slave (bytes)
system.membus.pkt_count::total                 865267                       # Packet count per connected master and slave (bytes)
system.membus.pkt_size_system.l2c.mem_side::system.bridge.slave       162798                       # Cumulative packet size per connected master and slave (bytes)
system.membus.pkt_size_system.l2c.mem_side::system.realview.nvmem.port           68                       # Cumulative packet size per connected master and slave (bytes)
system.membus.pkt_size_system.l2c.mem_side::system.realview.gic.pio        27344                       # Cumulative packet size per connected master and slave (bytes)
system.membus.pkt_size_system.l2c.mem_side::system.physmem.port     17575592                       # Cumulative packet size per connected master and slave (bytes)
system.membus.pkt_size_system.l2c.mem_side::total     17765802                       # Cumulative packet size per connected master and slave (bytes)
system.membus.pkt_size_system.iocache.mem_side::system.physmem.port      4635456                       # Cumulative packet size per connected master and slave (bytes)
system.membus.pkt_size_system.iocache.mem_side::total      4635456                       # Cumulative packet size per connected master and slave (bytes)
system.membus.pkt_size::total                22401258                       # Cumulative packet size per connected master and slave (bytes)
system.membus.snoops                           125085                       # Total snoops (count)
system.membus.snoop_fanout::samples            484369                       # Request fanout histogram
system.membus.snoop_fanout::mean                    1                       # Request fanout histogram
system.membus.snoop_fanout::stdev                   0                       # Request fanout histogram
system.membus.snoop_fanout::underflows              0      0.00%      0.00% # Request fanout histogram
system.membus.snoop_fanout::0                       0      0.00%      0.00% # Request fanout histogram
system.membus.snoop_fanout::1                  484369    100.00%    100.00% # Request fanout histogram
system.membus.snoop_fanout::2                       0      0.00%    100.00% # Request fanout histogram
system.membus.snoop_fanout::overflows               0      0.00%    100.00% # Request fanout histogram
system.membus.snoop_fanout::min_value               1                       # Request fanout histogram
system.membus.snoop_fanout::max_value               1                       # Request fanout histogram
system.membus.snoop_fanout::total              484369                       # Request fanout histogram
system.membus.reqLayer0.occupancy            88115000                       # Layer occupancy (ticks)
system.membus.reqLayer0.utilization               0.0                       # Layer utilization (%)
system.membus.reqLayer1.occupancy               18500                       # Layer occupancy (ticks)
system.membus.reqLayer1.utilization               0.0                       # Layer utilization (%)
system.membus.reqLayer2.occupancy            11464500                       # Layer occupancy (ticks)
system.membus.reqLayer2.utilization               0.0                       # Layer utilization (%)
system.membus.reqLayer5.occupancy          1105573957                       # Layer occupancy (ticks)
system.membus.reqLayer5.utilization               0.0                       # Layer utilization (%)
system.membus.respLayer2.occupancy         1100453088                       # Layer occupancy (ticks)
system.membus.respLayer2.utilization              0.0                       # Layer utilization (%)
system.membus.respLayer3.occupancy           37520484                       # Layer occupancy (ticks)
system.membus.respLayer3.utilization              0.0                       # Layer utilization (%)
system.realview.ethernet.descDMAReads               0                       # Number of descriptors the device read w/ DMA
system.realview.ethernet.descDMAWrites              0                       # Number of descriptors the device wrote w/ DMA
system.realview.ethernet.descDmaReadBytes            0                       # number of descriptor bytes read w/ DMA
system.realview.ethernet.descDmaWriteBytes            0                       # number of descriptor bytes write w/ DMA
system.realview.ethernet.postedSwi                  0                       # number of software interrupts posted to CPU
system.realview.ethernet.coalescedSwi             nan                       # average number of Swi's coalesced into each post
system.realview.ethernet.totalSwi                   0                       # total number of Swi written to ISR
system.realview.ethernet.postedRxIdle               0                       # number of rxIdle interrupts posted to CPU
system.realview.ethernet.coalescedRxIdle          nan                       # average number of RxIdle's coalesced into each post
system.realview.ethernet.totalRxIdle                0                       # total number of RxIdle written to ISR
system.realview.ethernet.postedRxOk                 0                       # number of RxOk interrupts posted to CPU
system.realview.ethernet.coalescedRxOk            nan                       # average number of RxOk's coalesced into each post
system.realview.ethernet.totalRxOk                  0                       # total number of RxOk written to ISR
system.realview.ethernet.postedRxDesc               0                       # number of RxDesc interrupts posted to CPU
system.realview.ethernet.coalescedRxDesc          nan                       # average number of RxDesc's coalesced into each post
system.realview.ethernet.totalRxDesc                0                       # total number of RxDesc written to ISR
system.realview.ethernet.postedTxOk                 0                       # number of TxOk interrupts posted to CPU
system.realview.ethernet.coalescedTxOk            nan                       # average number of TxOk's coalesced into each post
system.realview.ethernet.totalTxOk                  0                       # total number of TxOk written to ISR
system.realview.ethernet.postedTxIdle               0                       # number of TxIdle interrupts posted to CPU
system.realview.ethernet.coalescedTxIdle          nan                       # average number of TxIdle's coalesced into each post
system.realview.ethernet.totalTxIdle                0                       # total number of TxIdle written to ISR
system.realview.ethernet.postedTxDesc               0                       # number of TxDesc interrupts posted to CPU
system.realview.ethernet.coalescedTxDesc          nan                       # average number of TxDesc's coalesced into each post
system.realview.ethernet.totalTxDesc                0                       # total number of TxDesc written to ISR
system.realview.ethernet.postedRxOrn                0                       # number of RxOrn posted to CPU
system.realview.ethernet.coalescedRxOrn           nan                       # average number of RxOrn's coalesced into each post
system.realview.ethernet.totalRxOrn                 0                       # total number of RxOrn written to ISR
system.realview.ethernet.coalescedTotal           nan                       # average number of interrupts coalesced into each post
system.realview.ethernet.postedInterrupts            0                       # number of posts to CPU
system.realview.ethernet.droppedPackets             0                       # number of packets dropped
system.toL2Bus.trans_dist::ReadReq             476594                       # Transaction distribution
system.toL2Bus.trans_dist::ReadResp            476579                       # Transaction distribution
system.toL2Bus.trans_dist::WriteReq             30943                       # Transaction distribution
system.toL2Bus.trans_dist::WriteResp            30943                       # Transaction distribution
system.toL2Bus.trans_dist::Writeback           220623                       # Transaction distribution
system.toL2Bus.trans_dist::WriteInvalidateReq        36279                       # Transaction distribution
system.toL2Bus.trans_dist::UpgradeReq           80382                       # Transaction distribution
system.toL2Bus.trans_dist::SCUpgradeReq         40416                       # Transaction distribution
system.toL2Bus.trans_dist::UpgradeResp         120798                       # Transaction distribution
system.toL2Bus.trans_dist::SCUpgradeFailReq          107                       # Transaction distribution
system.toL2Bus.trans_dist::UpgradeFailResp          107                       # Transaction distribution
system.toL2Bus.trans_dist::ReadExReq            50330                       # Transaction distribution
system.toL2Bus.trans_dist::ReadExResp           50330                       # Transaction distribution
system.toL2Bus.pkt_count_system.cpu0.l2cache.mem_side::system.l2c.cpu_side      1064234                       # Packet count per connected master and slave (bytes)
system.toL2Bus.pkt_count_system.cpu1.l2cache.mem_side::system.l2c.cpu_side       261111                       # Packet count per connected master and slave (bytes)
system.toL2Bus.pkt_count::total               1325345                       # Packet count per connected master and slave (bytes)
system.toL2Bus.pkt_size_system.cpu0.l2cache.mem_side::system.l2c.cpu_side     31566808                       # Cumulative packet size per connected master and slave (bytes)
system.toL2Bus.pkt_size_system.cpu1.l2cache.mem_side::system.l2c.cpu_side      4207570                       # Cumulative packet size per connected master and slave (bytes)
system.toL2Bus.pkt_size::total               35774378                       # Cumulative packet size per connected master and slave (bytes)
system.toL2Bus.snoops                          289326                       # Total snoops (count)
system.toL2Bus.snoop_fanout::samples           860656                       # Request fanout histogram
system.toL2Bus.snoop_fanout::mean            1.042449                       # Request fanout histogram
system.toL2Bus.snoop_fanout::stdev           0.201611                       # Request fanout histogram
system.toL2Bus.snoop_fanout::underflows             0      0.00%      0.00% # Request fanout histogram
system.toL2Bus.snoop_fanout::0                      0      0.00%      0.00% # Request fanout histogram
system.toL2Bus.snoop_fanout::1                 824122     95.76%     95.76% # Request fanout histogram
system.toL2Bus.snoop_fanout::2                  36534      4.24%    100.00% # Request fanout histogram
system.toL2Bus.snoop_fanout::overflows              0      0.00%    100.00% # Request fanout histogram
system.toL2Bus.snoop_fanout::min_value              1                       # Request fanout histogram
system.toL2Bus.snoop_fanout::max_value              2                       # Request fanout histogram
system.toL2Bus.snoop_fanout::total             860656                       # Request fanout histogram
system.toL2Bus.reqLayer0.occupancy          750507689                       # Layer occupancy (ticks)
system.toL2Bus.reqLayer0.utilization              0.0                       # Layer utilization (%)
system.toL2Bus.snoopLayer0.occupancy           360000                       # Layer occupancy (ticks)
system.toL2Bus.snoopLayer0.utilization            0.0                       # Layer utilization (%)
system.toL2Bus.respLayer0.occupancy         653714719                       # Layer occupancy (ticks)
system.toL2Bus.respLayer0.utilization             0.0                       # Layer utilization (%)
system.toL2Bus.respLayer1.occupancy         219646363                       # Layer occupancy (ticks)
system.toL2Bus.respLayer1.utilization             0.0                       # Layer utilization (%)

---------- End Simulation Statistics   ----------
