
---------- Begin Simulation Statistics ----------
host_inst_rate                                2704949                       # Simulator instruction rate (inst/s)
host_mem_usage                                 202656                       # Number of bytes of host memory used
host_seconds                                   680.13                       # Real time elapsed on the host
host_tick_rate                             1356804201                       # Simulator tick rate (ticks/s)
sim_freq                                 1000000000000                       # Frequency of simulated ticks
sim_insts                                  1839728999                       # Number of instructions simulated
sim_seconds                                  0.922809                       # Number of seconds simulated
sim_ticks                                922809447000                       # Number of ticks simulated
system.cpu.dtb.accesses                             0                       # DTB accesses
system.cpu.dtb.hits                                 0                       # DTB hits
system.cpu.dtb.misses                               0                       # DTB misses
system.cpu.dtb.read_accesses                        0                       # DTB read accesses
system.cpu.dtb.read_hits                            0                       # DTB read hits
system.cpu.dtb.read_misses                          0                       # DTB read misses
system.cpu.dtb.write_accesses                       0                       # DTB write accesses
system.cpu.dtb.write_hits                           0                       # DTB write hits
system.cpu.dtb.write_misses                         0                       # DTB write misses
system.cpu.idle_fraction                            0                       # Percentage of idle cycles
system.cpu.itb.accesses                             0                       # DTB accesses
system.cpu.itb.hits                                 0                       # DTB hits
system.cpu.itb.misses                               0                       # DTB misses
system.cpu.itb.read_accesses                        0                       # DTB read accesses
system.cpu.itb.read_hits                            0                       # DTB read hits
system.cpu.itb.read_misses                          0                       # DTB read misses
system.cpu.itb.write_accesses                       0                       # DTB write accesses
system.cpu.itb.write_hits                           0                       # DTB write hits
system.cpu.itb.write_misses                         0                       # DTB write misses
system.cpu.not_idle_fraction                        1                       # Percentage of non-idle cycles
system.cpu.numCycles                       1845618895                       # number of cpu cycles simulated
system.cpu.num_insts                       1839728999                       # Number of instructions executed
system.cpu.num_refs                         908401146                       # Number of memory references
system.cpu.workload.PROG:num_syscalls            1411                       # Number of system calls

---------- End Simulation Statistics   ----------
