
---------- Begin Simulation Statistics ----------
sim_seconds                                  2.832863                       # Number of seconds simulated
sim_ticks                                2832863135500                       # Number of ticks simulated
final_tick                               2832863135500                       # Number of ticks from beginning of simulation (restored from checkpoints and never reset)
sim_freq                                 1000000000000                       # Frequency of simulated ticks
host_inst_rate                                  89708                       # Simulator instruction rate (inst/s)
host_op_rate                                   108808                       # Simulator op (including micro ops) rate (op/s)
host_tick_rate                             2246897924                       # Simulator tick rate (ticks/s)
host_mem_usage                                 584736                       # Number of bytes of host memory used
host_seconds                                  1260.79                       # Real time elapsed on the host
sim_insts                                   113102806                       # Number of instructions simulated
sim_ops                                     137183832                       # Number of ops (including micro ops) simulated
system.voltage_domain.voltage                       1                       # Voltage in Volts
system.clk_domain.clock                          1000                       # Clock period in ticks
system.physmem.bytes_read::cpu.dtb.walker         1216                       # Number of bytes read from this memory
system.physmem.bytes_read::cpu.itb.walker          384                       # Number of bytes read from this memory
system.physmem.bytes_read::cpu.inst           1320448                       # Number of bytes read from this memory
system.physmem.bytes_read::cpu.data           9385192                       # Number of bytes read from this memory
system.physmem.bytes_read::realview.ide           960                       # Number of bytes read from this memory
system.physmem.bytes_read::total             10708200                       # Number of bytes read from this memory
system.physmem.bytes_inst_read::cpu.inst      1320448                       # Number of instructions bytes read from this memory
system.physmem.bytes_inst_read::total         1320448                       # Number of instructions bytes read from this memory
system.physmem.bytes_written::writebacks      8027392                       # Number of bytes written to this memory
system.physmem.bytes_written::cpu.data          17524                       # Number of bytes written to this memory
system.physmem.bytes_written::total           8044916                       # Number of bytes written to this memory
system.physmem.num_reads::cpu.dtb.walker           19                       # Number of read requests responded to by this memory
system.physmem.num_reads::cpu.itb.walker            6                       # Number of read requests responded to by this memory
system.physmem.num_reads::cpu.inst              22879                       # Number of read requests responded to by this memory
system.physmem.num_reads::cpu.data             147164                       # Number of read requests responded to by this memory
system.physmem.num_reads::realview.ide             15                       # Number of read requests responded to by this memory
system.physmem.num_reads::total                170083                       # Number of read requests responded to by this memory
system.physmem.num_writes::writebacks          125428                       # Number of write requests responded to by this memory
system.physmem.num_writes::cpu.data              4381                       # Number of write requests responded to by this memory
system.physmem.num_writes::total               129809                       # Number of write requests responded to by this memory
system.physmem.bw_read::cpu.dtb.walker            429                       # Total read bandwidth from this memory (bytes/s)
system.physmem.bw_read::cpu.itb.walker            136                       # Total read bandwidth from this memory (bytes/s)
system.physmem.bw_read::cpu.inst               466118                       # Total read bandwidth from this memory (bytes/s)
system.physmem.bw_read::cpu.data              3312971                       # Total read bandwidth from this memory (bytes/s)
system.physmem.bw_read::realview.ide              339                       # Total read bandwidth from this memory (bytes/s)
system.physmem.bw_read::total                 3779992                       # Total read bandwidth from this memory (bytes/s)
system.physmem.bw_inst_read::cpu.inst          466118                       # Instruction read bandwidth from this memory (bytes/s)
system.physmem.bw_inst_read::total             466118                       # Instruction read bandwidth from this memory (bytes/s)
system.physmem.bw_write::writebacks           2833667                       # Write bandwidth from this memory (bytes/s)
system.physmem.bw_write::cpu.data                6186                       # Write bandwidth from this memory (bytes/s)
system.physmem.bw_write::total                2839853                       # Write bandwidth from this memory (bytes/s)
system.physmem.bw_total::writebacks           2833667                       # Total bandwidth to/from this memory (bytes/s)
system.physmem.bw_total::cpu.dtb.walker           429                       # Total bandwidth to/from this memory (bytes/s)
system.physmem.bw_total::cpu.itb.walker           136                       # Total bandwidth to/from this memory (bytes/s)
system.physmem.bw_total::cpu.inst              466118                       # Total bandwidth to/from this memory (bytes/s)
system.physmem.bw_total::cpu.data             3319156                       # Total bandwidth to/from this memory (bytes/s)
system.physmem.bw_total::realview.ide             339                       # Total bandwidth to/from this memory (bytes/s)
system.physmem.bw_total::total                6619845                       # Total bandwidth to/from this memory (bytes/s)
system.physmem.readReqs                        170084                       # Number of read requests accepted
system.physmem.writeReqs                       129809                       # Number of write requests accepted
system.physmem.readBursts                      170084                       # Number of DRAM read bursts, including those serviced by the write queue
system.physmem.writeBursts                     129809                       # Number of DRAM write bursts, including those merged in the write queue
system.physmem.bytesReadDRAM                 10877056                       # Total number of bytes read from DRAM
system.physmem.bytesReadWrQ                      8320                       # Total number of bytes read from write queue
system.physmem.bytesWritten                   8057984                       # Total number of bytes written to DRAM
system.physmem.bytesReadSys                  10708264                       # Total read bytes from the system interface side
system.physmem.bytesWrittenSys                8044916                       # Total written bytes from the system interface side
system.physmem.servicedByWrQ                      130                       # Number of DRAM read bursts serviced by the write queue
system.physmem.mergedWrBursts                    3887                       # Number of DRAM write bursts merged with an existing one
system.physmem.neitherReadNorWriteReqs              0                       # Number of requests that are neither read nor write
system.physmem.perBankRdBursts::0               11273                       # Per bank write bursts
system.physmem.perBankRdBursts::1               10590                       # Per bank write bursts
system.physmem.perBankRdBursts::2               10987                       # Per bank write bursts
system.physmem.perBankRdBursts::3               11172                       # Per bank write bursts
system.physmem.perBankRdBursts::4               12956                       # Per bank write bursts
system.physmem.perBankRdBursts::5                9956                       # Per bank write bursts
system.physmem.perBankRdBursts::6               10483                       # Per bank write bursts
system.physmem.perBankRdBursts::7               10745                       # Per bank write bursts
system.physmem.perBankRdBursts::8               10596                       # Per bank write bursts
system.physmem.perBankRdBursts::9               10173                       # Per bank write bursts
system.physmem.perBankRdBursts::10              10343                       # Per bank write bursts
system.physmem.perBankRdBursts::11               9301                       # Per bank write bursts
system.physmem.perBankRdBursts::12              10027                       # Per bank write bursts
system.physmem.perBankRdBursts::13              11029                       # Per bank write bursts
system.physmem.perBankRdBursts::14              10190                       # Per bank write bursts
system.physmem.perBankRdBursts::15              10133                       # Per bank write bursts
system.physmem.perBankWrBursts::0                8501                       # Per bank write bursts
system.physmem.perBankWrBursts::1                7944                       # Per bank write bursts
system.physmem.perBankWrBursts::2                8565                       # Per bank write bursts
system.physmem.perBankWrBursts::3                8669                       # Per bank write bursts
system.physmem.perBankWrBursts::4                7612                       # Per bank write bursts
system.physmem.perBankWrBursts::5                7365                       # Per bank write bursts
system.physmem.perBankWrBursts::6                7701                       # Per bank write bursts
system.physmem.perBankWrBursts::7                8000                       # Per bank write bursts
system.physmem.perBankWrBursts::8                7958                       # Per bank write bursts
system.physmem.perBankWrBursts::9                7673                       # Per bank write bursts
system.physmem.perBankWrBursts::10               7751                       # Per bank write bursts
system.physmem.perBankWrBursts::11               6981                       # Per bank write bursts
system.physmem.perBankWrBursts::12               7673                       # Per bank write bursts
system.physmem.perBankWrBursts::13               8385                       # Per bank write bursts
system.physmem.perBankWrBursts::14               7646                       # Per bank write bursts
system.physmem.perBankWrBursts::15               7482                       # Per bank write bursts
system.physmem.numRdRetry                           0                       # Number of times read queue was full causing retry
system.physmem.numWrRetry                          13                       # Number of times write queue was full causing retry
system.physmem.totGap                    2832862903500                       # Total gap between requests
system.physmem.readPktSize::0                       0                       # Read request sizes (log2)
system.physmem.readPktSize::1                       0                       # Read request sizes (log2)
system.physmem.readPktSize::2                     542                       # Read request sizes (log2)
system.physmem.readPktSize::3                      14                       # Read request sizes (log2)
system.physmem.readPktSize::4                    2996                       # Read request sizes (log2)
system.physmem.readPktSize::5                       0                       # Read request sizes (log2)
system.physmem.readPktSize::6                  166532                       # Read request sizes (log2)
system.physmem.writePktSize::0                      0                       # Write request sizes (log2)
system.physmem.writePktSize::1                      0                       # Write request sizes (log2)
system.physmem.writePktSize::2                   4381                       # Write request sizes (log2)
system.physmem.writePktSize::3                      0                       # Write request sizes (log2)
system.physmem.writePktSize::4                      0                       # Write request sizes (log2)
system.physmem.writePktSize::5                      0                       # Write request sizes (log2)
system.physmem.writePktSize::6                 125428                       # Write request sizes (log2)
system.physmem.rdQLenPdf::0                    150650                       # What read queue length does an incoming req see
system.physmem.rdQLenPdf::1                     16386                       # What read queue length does an incoming req see
system.physmem.rdQLenPdf::2                      2178                       # What read queue length does an incoming req see
system.physmem.rdQLenPdf::3                       724                       # What read queue length does an incoming req see
system.physmem.rdQLenPdf::4                         6                       # What read queue length does an incoming req see
system.physmem.rdQLenPdf::5                         1                       # What read queue length does an incoming req see
system.physmem.rdQLenPdf::6                         1                       # What read queue length does an incoming req see
system.physmem.rdQLenPdf::7                         1                       # What read queue length does an incoming req see
system.physmem.rdQLenPdf::8                         1                       # What read queue length does an incoming req see
system.physmem.rdQLenPdf::9                         1                       # What read queue length does an incoming req see
system.physmem.rdQLenPdf::10                        1                       # What read queue length does an incoming req see
system.physmem.rdQLenPdf::11                        1                       # What read queue length does an incoming req see
system.physmem.rdQLenPdf::12                        1                       # What read queue length does an incoming req see
system.physmem.rdQLenPdf::13                        1                       # What read queue length does an incoming req see
system.physmem.rdQLenPdf::14                        1                       # What read queue length does an incoming req see
system.physmem.rdQLenPdf::15                        0                       # What read queue length does an incoming req see
system.physmem.rdQLenPdf::16                        0                       # What read queue length does an incoming req see
system.physmem.rdQLenPdf::17                        0                       # What read queue length does an incoming req see
system.physmem.rdQLenPdf::18                        0                       # What read queue length does an incoming req see
system.physmem.rdQLenPdf::19                        0                       # What read queue length does an incoming req see
system.physmem.rdQLenPdf::20                        0                       # What read queue length does an incoming req see
system.physmem.rdQLenPdf::21                        0                       # What read queue length does an incoming req see
system.physmem.rdQLenPdf::22                        0                       # What read queue length does an incoming req see
system.physmem.rdQLenPdf::23                        0                       # What read queue length does an incoming req see
system.physmem.rdQLenPdf::24                        0                       # What read queue length does an incoming req see
system.physmem.rdQLenPdf::25                        0                       # What read queue length does an incoming req see
system.physmem.rdQLenPdf::26                        0                       # What read queue length does an incoming req see
system.physmem.rdQLenPdf::27                        0                       # What read queue length does an incoming req see
system.physmem.rdQLenPdf::28                        0                       # What read queue length does an incoming req see
system.physmem.rdQLenPdf::29                        0                       # What read queue length does an incoming req see
system.physmem.rdQLenPdf::30                        0                       # What read queue length does an incoming req see
system.physmem.rdQLenPdf::31                        0                       # What read queue length does an incoming req see
system.physmem.wrQLenPdf::0                         1                       # What write queue length does an incoming req see
system.physmem.wrQLenPdf::1                         1                       # What write queue length does an incoming req see
system.physmem.wrQLenPdf::2                         1                       # What write queue length does an incoming req see
system.physmem.wrQLenPdf::3                         1                       # What write queue length does an incoming req see
system.physmem.wrQLenPdf::4                         1                       # What write queue length does an incoming req see
system.physmem.wrQLenPdf::5                         1                       # What write queue length does an incoming req see
system.physmem.wrQLenPdf::6                         1                       # What write queue length does an incoming req see
system.physmem.wrQLenPdf::7                         1                       # What write queue length does an incoming req see
system.physmem.wrQLenPdf::8                         1                       # What write queue length does an incoming req see
system.physmem.wrQLenPdf::9                         1                       # What write queue length does an incoming req see
system.physmem.wrQLenPdf::10                        1                       # What write queue length does an incoming req see
system.physmem.wrQLenPdf::11                        1                       # What write queue length does an incoming req see
system.physmem.wrQLenPdf::12                        1                       # What write queue length does an incoming req see
system.physmem.wrQLenPdf::13                        1                       # What write queue length does an incoming req see
system.physmem.wrQLenPdf::14                        1                       # What write queue length does an incoming req see
system.physmem.wrQLenPdf::15                     1889                       # What write queue length does an incoming req see
system.physmem.wrQLenPdf::16                     2915                       # What write queue length does an incoming req see
system.physmem.wrQLenPdf::17                     6730                       # What write queue length does an incoming req see
system.physmem.wrQLenPdf::18                     6144                       # What write queue length does an incoming req see
system.physmem.wrQLenPdf::19                     7141                       # What write queue length does an incoming req see
system.physmem.wrQLenPdf::20                     6620                       # What write queue length does an incoming req see
system.physmem.wrQLenPdf::21                     6351                       # What write queue length does an incoming req see
system.physmem.wrQLenPdf::22                     6633                       # What write queue length does an incoming req see
system.physmem.wrQLenPdf::23                     7169                       # What write queue length does an incoming req see
system.physmem.wrQLenPdf::24                     7046                       # What write queue length does an incoming req see
system.physmem.wrQLenPdf::25                     7633                       # What write queue length does an incoming req see
system.physmem.wrQLenPdf::26                     8385                       # What write queue length does an incoming req see
system.physmem.wrQLenPdf::27                     7543                       # What write queue length does an incoming req see
system.physmem.wrQLenPdf::28                     7879                       # What write queue length does an incoming req see
system.physmem.wrQLenPdf::29                     9107                       # What write queue length does an incoming req see
system.physmem.wrQLenPdf::30                     7515                       # What write queue length does an incoming req see
system.physmem.wrQLenPdf::31                     7295                       # What write queue length does an incoming req see
system.physmem.wrQLenPdf::32                     7254                       # What write queue length does an incoming req see
system.physmem.wrQLenPdf::33                     1203                       # What write queue length does an incoming req see
system.physmem.wrQLenPdf::34                      366                       # What write queue length does an incoming req see
system.physmem.wrQLenPdf::35                      302                       # What write queue length does an incoming req see
system.physmem.wrQLenPdf::36                      228                       # What write queue length does an incoming req see
system.physmem.wrQLenPdf::37                      179                       # What write queue length does an incoming req see
system.physmem.wrQLenPdf::38                      224                       # What write queue length does an incoming req see
system.physmem.wrQLenPdf::39                      136                       # What write queue length does an incoming req see
system.physmem.wrQLenPdf::40                      120                       # What write queue length does an incoming req see
system.physmem.wrQLenPdf::41                      130                       # What write queue length does an incoming req see
system.physmem.wrQLenPdf::42                      107                       # What write queue length does an incoming req see
system.physmem.wrQLenPdf::43                      117                       # What write queue length does an incoming req see
system.physmem.wrQLenPdf::44                       89                       # What write queue length does an incoming req see
system.physmem.wrQLenPdf::45                      162                       # What write queue length does an incoming req see
system.physmem.wrQLenPdf::46                       90                       # What write queue length does an incoming req see
system.physmem.wrQLenPdf::47                      114                       # What write queue length does an incoming req see
system.physmem.wrQLenPdf::48                      108                       # What write queue length does an incoming req see
system.physmem.wrQLenPdf::49                       99                       # What write queue length does an incoming req see
system.physmem.wrQLenPdf::50                      126                       # What write queue length does an incoming req see
system.physmem.wrQLenPdf::51                       88                       # What write queue length does an incoming req see
system.physmem.wrQLenPdf::52                       95                       # What write queue length does an incoming req see
system.physmem.wrQLenPdf::53                       71                       # What write queue length does an incoming req see
system.physmem.wrQLenPdf::54                       92                       # What write queue length does an incoming req see
system.physmem.wrQLenPdf::55                       50                       # What write queue length does an incoming req see
system.physmem.wrQLenPdf::56                       53                       # What write queue length does an incoming req see
system.physmem.wrQLenPdf::57                       44                       # What write queue length does an incoming req see
system.physmem.wrQLenPdf::58                       49                       # What write queue length does an incoming req see
system.physmem.wrQLenPdf::59                       40                       # What write queue length does an incoming req see
system.physmem.wrQLenPdf::60                       53                       # What write queue length does an incoming req see
system.physmem.wrQLenPdf::61                       65                       # What write queue length does an incoming req see
system.physmem.wrQLenPdf::62                       19                       # What write queue length does an incoming req see
system.physmem.wrQLenPdf::63                       39                       # What write queue length does an incoming req see
system.physmem.bytesPerActivate::samples        61981                       # Bytes accessed per row activation
system.physmem.bytesPerActivate::mean      305.496459                       # Bytes accessed per row activation
system.physmem.bytesPerActivate::gmean     180.645422                       # Bytes accessed per row activation
system.physmem.bytesPerActivate::stdev     324.944153                       # Bytes accessed per row activation
system.physmem.bytesPerActivate::0-127          23140     37.33%     37.33% # Bytes accessed per row activation
system.physmem.bytesPerActivate::128-255        14875     24.00%     61.33% # Bytes accessed per row activation
system.physmem.bytesPerActivate::256-383         6518     10.52%     71.85% # Bytes accessed per row activation
system.physmem.bytesPerActivate::384-511         3622      5.84%     77.69% # Bytes accessed per row activation
system.physmem.bytesPerActivate::512-639         2531      4.08%     81.78% # Bytes accessed per row activation
system.physmem.bytesPerActivate::640-767         1654      2.67%     84.45% # Bytes accessed per row activation
system.physmem.bytesPerActivate::768-895         1506      2.43%     86.88% # Bytes accessed per row activation
system.physmem.bytesPerActivate::896-1023         1111      1.79%     88.67% # Bytes accessed per row activation
system.physmem.bytesPerActivate::1024-1151         7024     11.33%    100.00% # Bytes accessed per row activation
system.physmem.bytesPerActivate::total          61981                       # Bytes accessed per row activation
system.physmem.rdPerTurnAround::samples          6159                       # Reads before turning the bus around for writes
system.physmem.rdPerTurnAround::mean        27.593765                       # Reads before turning the bus around for writes
system.physmem.rdPerTurnAround::stdev      568.835471                       # Reads before turning the bus around for writes
system.physmem.rdPerTurnAround::0-2047           6158     99.98%     99.98% # Reads before turning the bus around for writes
system.physmem.rdPerTurnAround::43008-45055            1      0.02%    100.00% # Reads before turning the bus around for writes
system.physmem.rdPerTurnAround::total            6159                       # Reads before turning the bus around for writes
system.physmem.wrPerTurnAround::samples          6159                       # Writes before turning the bus around for reads
system.physmem.wrPerTurnAround::mean        20.442604                       # Writes before turning the bus around for reads
system.physmem.wrPerTurnAround::gmean       18.500292                       # Writes before turning the bus around for reads
system.physmem.wrPerTurnAround::stdev       14.099847                       # Writes before turning the bus around for reads
system.physmem.wrPerTurnAround::16-19            5468     88.78%     88.78% # Writes before turning the bus around for reads
system.physmem.wrPerTurnAround::20-23             102      1.66%     90.44% # Writes before turning the bus around for reads
system.physmem.wrPerTurnAround::24-27              31      0.50%     90.94% # Writes before turning the bus around for reads
system.physmem.wrPerTurnAround::28-31              55      0.89%     91.83% # Writes before turning the bus around for reads
system.physmem.wrPerTurnAround::32-35              28      0.45%     92.29% # Writes before turning the bus around for reads
system.physmem.wrPerTurnAround::36-39              20      0.32%     92.61% # Writes before turning the bus around for reads
system.physmem.wrPerTurnAround::40-43              47      0.76%     93.38% # Writes before turning the bus around for reads
system.physmem.wrPerTurnAround::44-47              12      0.19%     93.57% # Writes before turning the bus around for reads
system.physmem.wrPerTurnAround::48-51             146      2.37%     95.94% # Writes before turning the bus around for reads
system.physmem.wrPerTurnAround::52-55              14      0.23%     96.17% # Writes before turning the bus around for reads
system.physmem.wrPerTurnAround::56-59               5      0.08%     96.25% # Writes before turning the bus around for reads
system.physmem.wrPerTurnAround::60-63              12      0.19%     96.44% # Writes before turning the bus around for reads
system.physmem.wrPerTurnAround::64-67              62      1.01%     97.45% # Writes before turning the bus around for reads
system.physmem.wrPerTurnAround::68-71               6      0.10%     97.55% # Writes before turning the bus around for reads
system.physmem.wrPerTurnAround::72-75               7      0.11%     97.66% # Writes before turning the bus around for reads
system.physmem.wrPerTurnAround::76-79              23      0.37%     98.04% # Writes before turning the bus around for reads
system.physmem.wrPerTurnAround::80-83              90      1.46%     99.50% # Writes before turning the bus around for reads
system.physmem.wrPerTurnAround::84-87               1      0.02%     99.51% # Writes before turning the bus around for reads
system.physmem.wrPerTurnAround::88-91               3      0.05%     99.56% # Writes before turning the bus around for reads
system.physmem.wrPerTurnAround::96-99               1      0.02%     99.58% # Writes before turning the bus around for reads
system.physmem.wrPerTurnAround::100-103             1      0.02%     99.59% # Writes before turning the bus around for reads
system.physmem.wrPerTurnAround::104-107             1      0.02%     99.61% # Writes before turning the bus around for reads
system.physmem.wrPerTurnAround::108-111             1      0.02%     99.63% # Writes before turning the bus around for reads
system.physmem.wrPerTurnAround::112-115             1      0.02%     99.64% # Writes before turning the bus around for reads
system.physmem.wrPerTurnAround::128-131             8      0.13%     99.77% # Writes before turning the bus around for reads
system.physmem.wrPerTurnAround::132-135             1      0.02%     99.79% # Writes before turning the bus around for reads
system.physmem.wrPerTurnAround::136-139             1      0.02%     99.81% # Writes before turning the bus around for reads
system.physmem.wrPerTurnAround::140-143             3      0.05%     99.85% # Writes before turning the bus around for reads
system.physmem.wrPerTurnAround::144-147             5      0.08%     99.94% # Writes before turning the bus around for reads
system.physmem.wrPerTurnAround::156-159             2      0.03%     99.97% # Writes before turning the bus around for reads
system.physmem.wrPerTurnAround::172-175             1      0.02%     99.98% # Writes before turning the bus around for reads
system.physmem.wrPerTurnAround::196-199             1      0.02%    100.00% # Writes before turning the bus around for reads
system.physmem.wrPerTurnAround::total            6159                       # Writes before turning the bus around for reads
system.physmem.totQLat                     2118470000                       # Total ticks spent queuing
system.physmem.totMemAccLat                5305107500                       # Total ticks spent from burst creation until serviced by the DRAM
system.physmem.totBusLat                    849770000                       # Total ticks spent in databus transfers
system.physmem.avgQLat                       12464.96                       # Average queueing delay per DRAM burst
system.physmem.avgBusLat                      5000.00                       # Average bus latency per DRAM burst
system.physmem.avgMemAccLat                  31214.96                       # Average memory access latency per DRAM burst
system.physmem.avgRdBW                           3.84                       # Average DRAM read bandwidth in MiByte/s
system.physmem.avgWrBW                           2.84                       # Average achieved write bandwidth in MiByte/s
system.physmem.avgRdBWSys                        3.78                       # Average system read bandwidth in MiByte/s
system.physmem.avgWrBWSys                        2.84                       # Average system write bandwidth in MiByte/s
system.physmem.peakBW                        12800.00                       # Theoretical peak bandwidth in MiByte/s
system.physmem.busUtil                           0.05                       # Data bus utilization in percentage
system.physmem.busUtilRead                       0.03                       # Data bus utilization in percentage for reads
system.physmem.busUtilWrite                      0.02                       # Data bus utilization in percentage for writes
system.physmem.avgRdQLen                         1.01                       # Average read queue length when enqueuing
system.physmem.avgWrQLen                        24.34                       # Average write queue length when enqueuing
system.physmem.readRowHits                     139692                       # Number of row buffer hits during reads
system.physmem.writeRowHits                     94186                       # Number of row buffer hits during writes
system.physmem.readRowHitRate                   82.19                       # Row buffer hit rate for reads
system.physmem.writeRowHitRate                  74.80                       # Row buffer hit rate for writes
system.physmem.avgGap                      9446245.51                       # Average gap between requests
system.physmem.pageHitRate                      79.05                       # Row buffer hit rate, read and write combined
system.physmem_0.actEnergy                  242388720                       # Energy for activate commands per rank (pJ)
system.physmem_0.preEnergy                  132255750                       # Energy for precharge commands per rank (pJ)
system.physmem_0.readEnergy                 687663600                       # Energy for read commands per rank (pJ)
system.physmem_0.writeEnergy                417033360                       # Energy for write commands per rank (pJ)
system.physmem_0.refreshEnergy           185028367680                       # Energy for refresh commands per rank (pJ)
system.physmem_0.actBackEnergy            83434510665                       # Energy for active background per rank (pJ)
system.physmem_0.preBackEnergy           1626525439500                       # Energy for precharge background per rank (pJ)
system.physmem_0.totalEnergy             1896467659275                       # Total energy per rank (pJ)
system.physmem_0.averagePower              669.454308                       # Core power per rank (mW)
system.physmem_0.memoryStateTime::IDLE   2705731371250                       # Time in different power states
system.physmem_0.memoryStateTime::REF     94595280000                       # Time in different power states
system.physmem_0.memoryStateTime::PRE_PDN            0                       # Time in different power states
system.physmem_0.memoryStateTime::ACT     32529373750                       # Time in different power states
system.physmem_0.memoryStateTime::ACT_PDN            0                       # Time in different power states
system.physmem_1.actEnergy                  226187640                       # Energy for activate commands per rank (pJ)
system.physmem_1.preEnergy                  123415875                       # Energy for precharge commands per rank (pJ)
system.physmem_1.readEnergy                 637969800                       # Energy for read commands per rank (pJ)
system.physmem_1.writeEnergy                398837520                       # Energy for write commands per rank (pJ)
system.physmem_1.refreshEnergy           185028367680                       # Energy for refresh commands per rank (pJ)
system.physmem_1.actBackEnergy            82104234975                       # Energy for active background per rank (pJ)
system.physmem_1.preBackEnergy           1627692348000                       # Energy for precharge background per rank (pJ)
system.physmem_1.totalEnergy             1896211361490                       # Total energy per rank (pJ)
system.physmem_1.averagePower              669.363834                       # Core power per rank (mW)
system.physmem_1.memoryStateTime::IDLE   2707689162500                       # Time in different power states
system.physmem_1.memoryStateTime::REF     94595280000                       # Time in different power states
system.physmem_1.memoryStateTime::PRE_PDN            0                       # Time in different power states
system.physmem_1.memoryStateTime::ACT     30578679500                       # Time in different power states
system.physmem_1.memoryStateTime::ACT_PDN            0                       # Time in different power states
system.realview.nvmem.bytes_read::cpu.inst          112                       # Number of bytes read from this memory
system.realview.nvmem.bytes_read::total           112                       # Number of bytes read from this memory
system.realview.nvmem.bytes_inst_read::cpu.inst          112                       # Number of instructions bytes read from this memory
system.realview.nvmem.bytes_inst_read::total          112                       # Number of instructions bytes read from this memory
system.realview.nvmem.num_reads::cpu.inst            7                       # Number of read requests responded to by this memory
system.realview.nvmem.num_reads::total              7                       # Number of read requests responded to by this memory
system.realview.nvmem.bw_read::cpu.inst            40                       # Total read bandwidth from this memory (bytes/s)
system.realview.nvmem.bw_read::total               40                       # Total read bandwidth from this memory (bytes/s)
system.realview.nvmem.bw_inst_read::cpu.inst           40                       # Instruction read bandwidth from this memory (bytes/s)
system.realview.nvmem.bw_inst_read::total           40                       # Instruction read bandwidth from this memory (bytes/s)
system.realview.nvmem.bw_total::cpu.inst           40                       # Total bandwidth to/from this memory (bytes/s)
system.realview.nvmem.bw_total::total              40                       # Total bandwidth to/from this memory (bytes/s)
system.cf0.dma_read_full_pages                      0                       # Number of full page size DMA reads (not PRD).
system.cf0.dma_read_bytes                        1024                       # Number of bytes transfered via DMA reads (not PRD).
system.cf0.dma_read_txs                             1                       # Number of DMA read transactions (not PRD).
system.cf0.dma_write_full_pages                   540                       # Number of full page size DMA writes.
system.cf0.dma_write_bytes                    2318336                       # Number of bytes transfered via DMA writes.
system.cf0.dma_write_txs                          631                       # Number of DMA write transactions.
system.cpu.branchPred.lookups                46808005                       # Number of BP lookups
system.cpu.branchPred.condPredicted          23978413                       # Number of conditional branches predicted
system.cpu.branchPred.condIncorrect           1175283                       # Number of conditional branches incorrect
system.cpu.branchPred.BTBLookups             29454237                       # Number of BTB lookups
system.cpu.branchPred.BTBHits                13525326                       # Number of BTB hits
system.cpu.branchPred.BTBCorrect                    0                       # Number of correct BTB predictions (this stat may not work properly.
system.cpu.branchPred.BTBHitPct             45.919798                       # BTB Hit Percentage
system.cpu.branchPred.usedRAS                11724965                       # Number of times the RAS was used to get a target.
system.cpu.branchPred.RASInCorrect              34889                       # Number of incorrect RAS predictions.
system.cpu.branchPred.indirectLookups         7914908                       # Number of indirect predictor lookups.
system.cpu.branchPred.indirectHits            7768670                       # Number of indirect target hits.
system.cpu.branchPred.indirectMisses           146238                       # Number of indirect misses.
system.cpu.branchPredindirectMispredicted        60204                       # Number of mispredicted indirect branches.
system.cpu_clk_domain.clock                       500                       # Clock period in ticks
system.cpu.checker.dstage2_mmu.stage2_tlb.walker.walks            0                       # Table walker walks requested
system.cpu.checker.dstage2_mmu.stage2_tlb.walker.walkRequestOrigin_Requested::Data            0                       # Table walker requests started/completed, data/inst
system.cpu.checker.dstage2_mmu.stage2_tlb.walker.walkRequestOrigin_Requested::Inst            0                       # Table walker requests started/completed, data/inst
system.cpu.checker.dstage2_mmu.stage2_tlb.walker.walkRequestOrigin_Requested::total            0                       # Table walker requests started/completed, data/inst
system.cpu.checker.dstage2_mmu.stage2_tlb.walker.walkRequestOrigin_Completed::Data            0                       # Table walker requests started/completed, data/inst
system.cpu.checker.dstage2_mmu.stage2_tlb.walker.walkRequestOrigin_Completed::Inst            0                       # Table walker requests started/completed, data/inst
system.cpu.checker.dstage2_mmu.stage2_tlb.walker.walkRequestOrigin_Completed::total            0                       # Table walker requests started/completed, data/inst
system.cpu.checker.dstage2_mmu.stage2_tlb.walker.walkRequestOrigin::total            0                       # Table walker requests started/completed, data/inst
system.cpu.checker.dstage2_mmu.stage2_tlb.inst_hits            0                       # ITB inst hits
system.cpu.checker.dstage2_mmu.stage2_tlb.inst_misses            0                       # ITB inst misses
system.cpu.checker.dstage2_mmu.stage2_tlb.read_hits            0                       # DTB read hits
system.cpu.checker.dstage2_mmu.stage2_tlb.read_misses            0                       # DTB read misses
system.cpu.checker.dstage2_mmu.stage2_tlb.write_hits            0                       # DTB write hits
system.cpu.checker.dstage2_mmu.stage2_tlb.write_misses            0                       # DTB write misses
system.cpu.checker.dstage2_mmu.stage2_tlb.flush_tlb            0                       # Number of times complete TLB was flushed
system.cpu.checker.dstage2_mmu.stage2_tlb.flush_tlb_mva            0                       # Number of times TLB was flushed by MVA
system.cpu.checker.dstage2_mmu.stage2_tlb.flush_tlb_mva_asid            0                       # Number of times TLB was flushed by MVA & ASID
system.cpu.checker.dstage2_mmu.stage2_tlb.flush_tlb_asid            0                       # Number of times TLB was flushed by ASID
system.cpu.checker.dstage2_mmu.stage2_tlb.flush_entries            0                       # Number of entries that have been flushed from TLB
system.cpu.checker.dstage2_mmu.stage2_tlb.align_faults            0                       # Number of TLB faults due to alignment restrictions
system.cpu.checker.dstage2_mmu.stage2_tlb.prefetch_faults            0                       # Number of TLB faults due to prefetch
system.cpu.checker.dstage2_mmu.stage2_tlb.domain_faults            0                       # Number of TLB faults due to domain restrictions
system.cpu.checker.dstage2_mmu.stage2_tlb.perms_faults            0                       # Number of TLB faults due to permissions restrictions
system.cpu.checker.dstage2_mmu.stage2_tlb.read_accesses            0                       # DTB read accesses
system.cpu.checker.dstage2_mmu.stage2_tlb.write_accesses            0                       # DTB write accesses
system.cpu.checker.dstage2_mmu.stage2_tlb.inst_accesses            0                       # ITB inst accesses
system.cpu.checker.dstage2_mmu.stage2_tlb.hits            0                       # DTB hits
system.cpu.checker.dstage2_mmu.stage2_tlb.misses            0                       # DTB misses
system.cpu.checker.dstage2_mmu.stage2_tlb.accesses            0                       # DTB accesses
system.cpu.checker.dtb.walker.walks              9709                       # Table walker walks requested
system.cpu.checker.dtb.walker.walksShort         9709                       # Table walker walks initiated with short descriptors
system.cpu.checker.dtb.walker.walkWaitTime::samples         9709                       # Table walker wait (enqueue to first request) latency
system.cpu.checker.dtb.walker.walkWaitTime::0         9709    100.00%    100.00% # Table walker wait (enqueue to first request) latency
system.cpu.checker.dtb.walker.walkWaitTime::total         9709                       # Table walker wait (enqueue to first request) latency
system.cpu.checker.dtb.walker.walksPending::samples    375751000                       # Table walker pending requests distribution
system.cpu.checker.dtb.walker.walksPending::0    375751000    100.00%    100.00% # Table walker pending requests distribution
system.cpu.checker.dtb.walker.walksPending::total    375751000                       # Table walker pending requests distribution
system.cpu.checker.dtb.walker.walkPageSizes::4K         6239     82.69%     82.69% # Table walker page sizes translated
system.cpu.checker.dtb.walker.walkPageSizes::1M         1306     17.31%    100.00% # Table walker page sizes translated
system.cpu.checker.dtb.walker.walkPageSizes::total         7545                       # Table walker page sizes translated
system.cpu.checker.dtb.walker.walkRequestOrigin_Requested::Data         9709                       # Table walker requests started/completed, data/inst
system.cpu.checker.dtb.walker.walkRequestOrigin_Requested::Inst            0                       # Table walker requests started/completed, data/inst
system.cpu.checker.dtb.walker.walkRequestOrigin_Requested::total         9709                       # Table walker requests started/completed, data/inst
system.cpu.checker.dtb.walker.walkRequestOrigin_Completed::Data         7545                       # Table walker requests started/completed, data/inst
system.cpu.checker.dtb.walker.walkRequestOrigin_Completed::Inst            0                       # Table walker requests started/completed, data/inst
system.cpu.checker.dtb.walker.walkRequestOrigin_Completed::total         7545                       # Table walker requests started/completed, data/inst
system.cpu.checker.dtb.walker.walkRequestOrigin::total        17254                       # Table walker requests started/completed, data/inst
system.cpu.checker.dtb.inst_hits                    0                       # ITB inst hits
system.cpu.checker.dtb.inst_misses                  0                       # ITB inst misses
system.cpu.checker.dtb.read_hits             24576844                       # DTB read hits
system.cpu.checker.dtb.read_misses               8297                       # DTB read misses
system.cpu.checker.dtb.write_hits            19632942                       # DTB write hits
system.cpu.checker.dtb.write_misses              1412                       # DTB write misses
system.cpu.checker.dtb.flush_tlb                  128                       # Number of times complete TLB was flushed
system.cpu.checker.dtb.flush_tlb_mva             1834                       # Number of times TLB was flushed by MVA
system.cpu.checker.dtb.flush_tlb_mva_asid            0                       # Number of times TLB was flushed by MVA & ASID
system.cpu.checker.dtb.flush_tlb_asid               0                       # Number of times TLB was flushed by ASID
system.cpu.checker.dtb.flush_entries             4283                       # Number of entries that have been flushed from TLB
system.cpu.checker.dtb.align_faults                 0                       # Number of TLB faults due to alignment restrictions
system.cpu.checker.dtb.prefetch_faults           1622                       # Number of TLB faults due to prefetch
system.cpu.checker.dtb.domain_faults                0                       # Number of TLB faults due to domain restrictions
system.cpu.checker.dtb.perms_faults               445                       # Number of TLB faults due to permissions restrictions
system.cpu.checker.dtb.read_accesses         24585141                       # DTB read accesses
system.cpu.checker.dtb.write_accesses        19634354                       # DTB write accesses
system.cpu.checker.dtb.inst_accesses                0                       # ITB inst accesses
system.cpu.checker.dtb.hits                  44209786                       # DTB hits
system.cpu.checker.dtb.misses                    9709                       # DTB misses
system.cpu.checker.dtb.accesses              44219495                       # DTB accesses
system.cpu.checker.istage2_mmu.stage2_tlb.walker.walks            0                       # Table walker walks requested
system.cpu.checker.istage2_mmu.stage2_tlb.walker.walkRequestOrigin_Requested::Data            0                       # Table walker requests started/completed, data/inst
system.cpu.checker.istage2_mmu.stage2_tlb.walker.walkRequestOrigin_Requested::Inst            0                       # Table walker requests started/completed, data/inst
system.cpu.checker.istage2_mmu.stage2_tlb.walker.walkRequestOrigin_Requested::total            0                       # Table walker requests started/completed, data/inst
system.cpu.checker.istage2_mmu.stage2_tlb.walker.walkRequestOrigin_Completed::Data            0                       # Table walker requests started/completed, data/inst
system.cpu.checker.istage2_mmu.stage2_tlb.walker.walkRequestOrigin_Completed::Inst            0                       # Table walker requests started/completed, data/inst
system.cpu.checker.istage2_mmu.stage2_tlb.walker.walkRequestOrigin_Completed::total            0                       # Table walker requests started/completed, data/inst
system.cpu.checker.istage2_mmu.stage2_tlb.walker.walkRequestOrigin::total            0                       # Table walker requests started/completed, data/inst
system.cpu.checker.istage2_mmu.stage2_tlb.inst_hits            0                       # ITB inst hits
system.cpu.checker.istage2_mmu.stage2_tlb.inst_misses            0                       # ITB inst misses
system.cpu.checker.istage2_mmu.stage2_tlb.read_hits            0                       # DTB read hits
system.cpu.checker.istage2_mmu.stage2_tlb.read_misses            0                       # DTB read misses
system.cpu.checker.istage2_mmu.stage2_tlb.write_hits            0                       # DTB write hits
system.cpu.checker.istage2_mmu.stage2_tlb.write_misses            0                       # DTB write misses
system.cpu.checker.istage2_mmu.stage2_tlb.flush_tlb            0                       # Number of times complete TLB was flushed
system.cpu.checker.istage2_mmu.stage2_tlb.flush_tlb_mva            0                       # Number of times TLB was flushed by MVA
system.cpu.checker.istage2_mmu.stage2_tlb.flush_tlb_mva_asid            0                       # Number of times TLB was flushed by MVA & ASID
system.cpu.checker.istage2_mmu.stage2_tlb.flush_tlb_asid            0                       # Number of times TLB was flushed by ASID
system.cpu.checker.istage2_mmu.stage2_tlb.flush_entries            0                       # Number of entries that have been flushed from TLB
system.cpu.checker.istage2_mmu.stage2_tlb.align_faults            0                       # Number of TLB faults due to alignment restrictions
system.cpu.checker.istage2_mmu.stage2_tlb.prefetch_faults            0                       # Number of TLB faults due to prefetch
system.cpu.checker.istage2_mmu.stage2_tlb.domain_faults            0                       # Number of TLB faults due to domain restrictions
system.cpu.checker.istage2_mmu.stage2_tlb.perms_faults            0                       # Number of TLB faults due to permissions restrictions
system.cpu.checker.istage2_mmu.stage2_tlb.read_accesses            0                       # DTB read accesses
system.cpu.checker.istage2_mmu.stage2_tlb.write_accesses            0                       # DTB write accesses
system.cpu.checker.istage2_mmu.stage2_tlb.inst_accesses            0                       # ITB inst accesses
system.cpu.checker.istage2_mmu.stage2_tlb.hits            0                       # DTB hits
system.cpu.checker.istage2_mmu.stage2_tlb.misses            0                       # DTB misses
system.cpu.checker.istage2_mmu.stage2_tlb.accesses            0                       # DTB accesses
system.cpu.checker.itb.walker.walks              4825                       # Table walker walks requested
system.cpu.checker.itb.walker.walksShort         4825                       # Table walker walks initiated with short descriptors
system.cpu.checker.itb.walker.walkWaitTime::samples         4825                       # Table walker wait (enqueue to first request) latency
system.cpu.checker.itb.walker.walkWaitTime::0         4825    100.00%    100.00% # Table walker wait (enqueue to first request) latency
system.cpu.checker.itb.walker.walkWaitTime::total         4825                       # Table walker wait (enqueue to first request) latency
system.cpu.checker.itb.walker.walksPending::samples    375090000                       # Table walker pending requests distribution
system.cpu.checker.itb.walker.walksPending::0    375090000    100.00%    100.00% # Table walker pending requests distribution
system.cpu.checker.itb.walker.walksPending::total    375090000                       # Table walker pending requests distribution
system.cpu.checker.itb.walker.walkPageSizes::4K         2798     88.26%     88.26% # Table walker page sizes translated
system.cpu.checker.itb.walker.walkPageSizes::1M          372     11.74%    100.00% # Table walker page sizes translated
system.cpu.checker.itb.walker.walkPageSizes::total         3170                       # Table walker page sizes translated
system.cpu.checker.itb.walker.walkRequestOrigin_Requested::Data            0                       # Table walker requests started/completed, data/inst
system.cpu.checker.itb.walker.walkRequestOrigin_Requested::Inst         4825                       # Table walker requests started/completed, data/inst
system.cpu.checker.itb.walker.walkRequestOrigin_Requested::total         4825                       # Table walker requests started/completed, data/inst
system.cpu.checker.itb.walker.walkRequestOrigin_Completed::Data            0                       # Table walker requests started/completed, data/inst
system.cpu.checker.itb.walker.walkRequestOrigin_Completed::Inst         3170                       # Table walker requests started/completed, data/inst
system.cpu.checker.itb.walker.walkRequestOrigin_Completed::total         3170                       # Table walker requests started/completed, data/inst
system.cpu.checker.itb.walker.walkRequestOrigin::total         7995                       # Table walker requests started/completed, data/inst
system.cpu.checker.itb.inst_hits            115801229                       # ITB inst hits
system.cpu.checker.itb.inst_misses               4825                       # ITB inst misses
system.cpu.checker.itb.read_hits                    0                       # DTB read hits
system.cpu.checker.itb.read_misses                  0                       # DTB read misses
system.cpu.checker.itb.write_hits                   0                       # DTB write hits
system.cpu.checker.itb.write_misses                 0                       # DTB write misses
system.cpu.checker.itb.flush_tlb                  128                       # Number of times complete TLB was flushed
system.cpu.checker.itb.flush_tlb_mva             1834                       # Number of times TLB was flushed by MVA
system.cpu.checker.itb.flush_tlb_mva_asid            0                       # Number of times TLB was flushed by MVA & ASID
system.cpu.checker.itb.flush_tlb_asid               0                       # Number of times TLB was flushed by ASID
system.cpu.checker.itb.flush_entries             2976                       # Number of entries that have been flushed from TLB
system.cpu.checker.itb.align_faults                 0                       # Number of TLB faults due to alignment restrictions
system.cpu.checker.itb.prefetch_faults              0                       # Number of TLB faults due to prefetch
system.cpu.checker.itb.domain_faults                0                       # Number of TLB faults due to domain restrictions
system.cpu.checker.itb.perms_faults                 0                       # Number of TLB faults due to permissions restrictions
system.cpu.checker.itb.read_accesses                0                       # DTB read accesses
system.cpu.checker.itb.write_accesses               0                       # DTB write accesses
system.cpu.checker.itb.inst_accesses        115806054                       # ITB inst accesses
system.cpu.checker.itb.hits                 115801229                       # DTB hits
system.cpu.checker.itb.misses                    4825                       # DTB misses
system.cpu.checker.itb.accesses             115806054                       # DTB accesses
system.cpu.checker.numCycles                139034298                       # number of cpu cycles simulated
system.cpu.checker.numWorkItemsStarted              0                       # number of work items this cpu started
system.cpu.checker.numWorkItemsCompleted            0                       # number of work items this cpu completed
system.cpu.dstage2_mmu.stage2_tlb.walker.walks            0                       # Table walker walks requested
system.cpu.dstage2_mmu.stage2_tlb.walker.walkRequestOrigin_Requested::Data            0                       # Table walker requests started/completed, data/inst
system.cpu.dstage2_mmu.stage2_tlb.walker.walkRequestOrigin_Requested::Inst            0                       # Table walker requests started/completed, data/inst
system.cpu.dstage2_mmu.stage2_tlb.walker.walkRequestOrigin_Requested::total            0                       # Table walker requests started/completed, data/inst
system.cpu.dstage2_mmu.stage2_tlb.walker.walkRequestOrigin_Completed::Data            0                       # Table walker requests started/completed, data/inst
system.cpu.dstage2_mmu.stage2_tlb.walker.walkRequestOrigin_Completed::Inst            0                       # Table walker requests started/completed, data/inst
system.cpu.dstage2_mmu.stage2_tlb.walker.walkRequestOrigin_Completed::total            0                       # Table walker requests started/completed, data/inst
system.cpu.dstage2_mmu.stage2_tlb.walker.walkRequestOrigin::total            0                       # Table walker requests started/completed, data/inst
system.cpu.dstage2_mmu.stage2_tlb.inst_hits            0                       # ITB inst hits
system.cpu.dstage2_mmu.stage2_tlb.inst_misses            0                       # ITB inst misses
system.cpu.dstage2_mmu.stage2_tlb.read_hits            0                       # DTB read hits
system.cpu.dstage2_mmu.stage2_tlb.read_misses            0                       # DTB read misses
system.cpu.dstage2_mmu.stage2_tlb.write_hits            0                       # DTB write hits
system.cpu.dstage2_mmu.stage2_tlb.write_misses            0                       # DTB write misses
system.cpu.dstage2_mmu.stage2_tlb.flush_tlb            0                       # Number of times complete TLB was flushed
system.cpu.dstage2_mmu.stage2_tlb.flush_tlb_mva            0                       # Number of times TLB was flushed by MVA
system.cpu.dstage2_mmu.stage2_tlb.flush_tlb_mva_asid            0                       # Number of times TLB was flushed by MVA & ASID
system.cpu.dstage2_mmu.stage2_tlb.flush_tlb_asid            0                       # Number of times TLB was flushed by ASID
system.cpu.dstage2_mmu.stage2_tlb.flush_entries            0                       # Number of entries that have been flushed from TLB
system.cpu.dstage2_mmu.stage2_tlb.align_faults            0                       # Number of TLB faults due to alignment restrictions
system.cpu.dstage2_mmu.stage2_tlb.prefetch_faults            0                       # Number of TLB faults due to prefetch
system.cpu.dstage2_mmu.stage2_tlb.domain_faults            0                       # Number of TLB faults due to domain restrictions
system.cpu.dstage2_mmu.stage2_tlb.perms_faults            0                       # Number of TLB faults due to permissions restrictions
system.cpu.dstage2_mmu.stage2_tlb.read_accesses            0                       # DTB read accesses
system.cpu.dstage2_mmu.stage2_tlb.write_accesses            0                       # DTB write accesses
system.cpu.dstage2_mmu.stage2_tlb.inst_accesses            0                       # ITB inst accesses
system.cpu.dstage2_mmu.stage2_tlb.hits              0                       # DTB hits
system.cpu.dstage2_mmu.stage2_tlb.misses            0                       # DTB misses
system.cpu.dstage2_mmu.stage2_tlb.accesses            0                       # DTB accesses
system.cpu.dtb.walker.walks                     72355                       # Table walker walks requested
system.cpu.dtb.walker.walksShort                72355                       # Table walker walks initiated with short descriptors
system.cpu.dtb.walker.walksShortTerminationLevel::Level1        29395                       # Level at which table walker walks with short descriptors terminate
system.cpu.dtb.walker.walksShortTerminationLevel::Level2        23194                       # Level at which table walker walks with short descriptors terminate
system.cpu.dtb.walker.walksSquashedBefore        19766                       # Table walks squashed before starting
system.cpu.dtb.walker.walkWaitTime::samples        52589                       # Table walker wait (enqueue to first request) latency
system.cpu.dtb.walker.walkWaitTime::mean   463.728156                       # Table walker wait (enqueue to first request) latency
system.cpu.dtb.walker.walkWaitTime::stdev  2807.068133                       # Table walker wait (enqueue to first request) latency
system.cpu.dtb.walker.walkWaitTime::0-8191        51286     97.52%     97.52% # Table walker wait (enqueue to first request) latency
system.cpu.dtb.walker.walkWaitTime::8192-16383          905      1.72%     99.24% # Table walker wait (enqueue to first request) latency
system.cpu.dtb.walker.walkWaitTime::16384-24575          316      0.60%     99.84% # Table walker wait (enqueue to first request) latency
system.cpu.dtb.walker.walkWaitTime::24576-32767           38      0.07%     99.92% # Table walker wait (enqueue to first request) latency
system.cpu.dtb.walker.walkWaitTime::32768-40959           15      0.03%     99.94% # Table walker wait (enqueue to first request) latency
system.cpu.dtb.walker.walkWaitTime::40960-49151           23      0.04%     99.99% # Table walker wait (enqueue to first request) latency
system.cpu.dtb.walker.walkWaitTime::49152-57343            2      0.00%     99.99% # Table walker wait (enqueue to first request) latency
system.cpu.dtb.walker.walkWaitTime::57344-65535            1      0.00%     99.99% # Table walker wait (enqueue to first request) latency
system.cpu.dtb.walker.walkWaitTime::65536-73727            1      0.00%    100.00% # Table walker wait (enqueue to first request) latency
system.cpu.dtb.walker.walkWaitTime::81920-90111            1      0.00%    100.00% # Table walker wait (enqueue to first request) latency
system.cpu.dtb.walker.walkWaitTime::90112-98303            1      0.00%    100.00% # Table walker wait (enqueue to first request) latency
system.cpu.dtb.walker.walkWaitTime::total        52589                       # Table walker wait (enqueue to first request) latency
system.cpu.dtb.walker.walkCompletionTime::samples        17730                       # Table walker service (enqueue to completion) latency
system.cpu.dtb.walker.walkCompletionTime::mean 12604.906937                       # Table walker service (enqueue to completion) latency
system.cpu.dtb.walker.walkCompletionTime::gmean 10089.659045                       # Table walker service (enqueue to completion) latency
system.cpu.dtb.walker.walkCompletionTime::stdev  8394.043940                       # Table walker service (enqueue to completion) latency
system.cpu.dtb.walker.walkCompletionTime::0-32767        17507     98.74%     98.74% # Table walker service (enqueue to completion) latency
system.cpu.dtb.walker.walkCompletionTime::32768-65535          217      1.22%     99.97% # Table walker service (enqueue to completion) latency
system.cpu.dtb.walker.walkCompletionTime::131072-163839            5      0.03%     99.99% # Table walker service (enqueue to completion) latency
system.cpu.dtb.walker.walkCompletionTime::294912-327679            1      0.01%    100.00% # Table walker service (enqueue to completion) latency
system.cpu.dtb.walker.walkCompletionTime::total        17730                       # Table walker service (enqueue to completion) latency
system.cpu.dtb.walker.walksPending::samples 131327621316                       # Table walker pending requests distribution
system.cpu.dtb.walker.walksPending::mean     0.619198                       # Table walker pending requests distribution
system.cpu.dtb.walker.walksPending::stdev     0.492781                       # Table walker pending requests distribution
system.cpu.dtb.walker.walksPending::0-1  131267451816     99.95%     99.95% # Table walker pending requests distribution
system.cpu.dtb.walker.walksPending::2-3      41041000      0.03%     99.99% # Table walker pending requests distribution
system.cpu.dtb.walker.walksPending::4-5       8807000      0.01%     99.99% # Table walker pending requests distribution
system.cpu.dtb.walker.walksPending::6-7       6837500      0.01%    100.00% # Table walker pending requests distribution
system.cpu.dtb.walker.walksPending::8-9       1021000      0.00%    100.00% # Table walker pending requests distribution
system.cpu.dtb.walker.walksPending::10-11       576000      0.00%    100.00% # Table walker pending requests distribution
system.cpu.dtb.walker.walksPending::12-13      1403500      0.00%    100.00% # Table walker pending requests distribution
system.cpu.dtb.walker.walksPending::14-15       474000      0.00%    100.00% # Table walker pending requests distribution
system.cpu.dtb.walker.walksPending::16-17         9500      0.00%    100.00% # Table walker pending requests distribution
system.cpu.dtb.walker.walksPending::total 131327621316                       # Table walker pending requests distribution
system.cpu.dtb.walker.walkPageSizes::4K          6380     82.61%     82.61% # Table walker page sizes translated
system.cpu.dtb.walker.walkPageSizes::1M          1343     17.39%    100.00% # Table walker page sizes translated
system.cpu.dtb.walker.walkPageSizes::total         7723                       # Table walker page sizes translated
system.cpu.dtb.walker.walkRequestOrigin_Requested::Data        72355                       # Table walker requests started/completed, data/inst
system.cpu.dtb.walker.walkRequestOrigin_Requested::Inst            0                       # Table walker requests started/completed, data/inst
system.cpu.dtb.walker.walkRequestOrigin_Requested::total        72355                       # Table walker requests started/completed, data/inst
system.cpu.dtb.walker.walkRequestOrigin_Completed::Data         7723                       # Table walker requests started/completed, data/inst
system.cpu.dtb.walker.walkRequestOrigin_Completed::Inst            0                       # Table walker requests started/completed, data/inst
system.cpu.dtb.walker.walkRequestOrigin_Completed::total         7723                       # Table walker requests started/completed, data/inst
system.cpu.dtb.walker.walkRequestOrigin::total        80078                       # Table walker requests started/completed, data/inst
system.cpu.dtb.inst_hits                            0                       # ITB inst hits
system.cpu.dtb.inst_misses                          0                       # ITB inst misses
system.cpu.dtb.read_hits                     25411177                       # DTB read hits
system.cpu.dtb.read_misses                      62688                       # DTB read misses
system.cpu.dtb.write_hits                    19865478                       # DTB write hits
system.cpu.dtb.write_misses                      9667                       # DTB write misses
system.cpu.dtb.flush_tlb                          128                       # Number of times complete TLB was flushed
system.cpu.dtb.flush_tlb_mva                     1834                       # Number of times TLB was flushed by MVA
system.cpu.dtb.flush_tlb_mva_asid                   0                       # Number of times TLB was flushed by MVA & ASID
system.cpu.dtb.flush_tlb_asid                       0                       # Number of times TLB was flushed by ASID
system.cpu.dtb.flush_entries                     4317                       # Number of entries that have been flushed from TLB
system.cpu.dtb.align_faults                       361                       # Number of TLB faults due to alignment restrictions
system.cpu.dtb.prefetch_faults                   2060                       # Number of TLB faults due to prefetch
system.cpu.dtb.domain_faults                        0                       # Number of TLB faults due to domain restrictions
system.cpu.dtb.perms_faults                      1317                       # Number of TLB faults due to permissions restrictions
system.cpu.dtb.read_accesses                 25473865                       # DTB read accesses
system.cpu.dtb.write_accesses                19875145                       # DTB write accesses
system.cpu.dtb.inst_accesses                        0                       # ITB inst accesses
system.cpu.dtb.hits                          45276655                       # DTB hits
system.cpu.dtb.misses                           72355                       # DTB misses
system.cpu.dtb.accesses                      45349010                       # DTB accesses
system.cpu.istage2_mmu.stage2_tlb.walker.walks            0                       # Table walker walks requested
system.cpu.istage2_mmu.stage2_tlb.walker.walkRequestOrigin_Requested::Data            0                       # Table walker requests started/completed, data/inst
system.cpu.istage2_mmu.stage2_tlb.walker.walkRequestOrigin_Requested::Inst            0                       # Table walker requests started/completed, data/inst
system.cpu.istage2_mmu.stage2_tlb.walker.walkRequestOrigin_Requested::total            0                       # Table walker requests started/completed, data/inst
system.cpu.istage2_mmu.stage2_tlb.walker.walkRequestOrigin_Completed::Data            0                       # Table walker requests started/completed, data/inst
system.cpu.istage2_mmu.stage2_tlb.walker.walkRequestOrigin_Completed::Inst            0                       # Table walker requests started/completed, data/inst
system.cpu.istage2_mmu.stage2_tlb.walker.walkRequestOrigin_Completed::total            0                       # Table walker requests started/completed, data/inst
system.cpu.istage2_mmu.stage2_tlb.walker.walkRequestOrigin::total            0                       # Table walker requests started/completed, data/inst
system.cpu.istage2_mmu.stage2_tlb.inst_hits            0                       # ITB inst hits
system.cpu.istage2_mmu.stage2_tlb.inst_misses            0                       # ITB inst misses
system.cpu.istage2_mmu.stage2_tlb.read_hits            0                       # DTB read hits
system.cpu.istage2_mmu.stage2_tlb.read_misses            0                       # DTB read misses
system.cpu.istage2_mmu.stage2_tlb.write_hits            0                       # DTB write hits
system.cpu.istage2_mmu.stage2_tlb.write_misses            0                       # DTB write misses
system.cpu.istage2_mmu.stage2_tlb.flush_tlb            0                       # Number of times complete TLB was flushed
system.cpu.istage2_mmu.stage2_tlb.flush_tlb_mva            0                       # Number of times TLB was flushed by MVA
system.cpu.istage2_mmu.stage2_tlb.flush_tlb_mva_asid            0                       # Number of times TLB was flushed by MVA & ASID
system.cpu.istage2_mmu.stage2_tlb.flush_tlb_asid            0                       # Number of times TLB was flushed by ASID
system.cpu.istage2_mmu.stage2_tlb.flush_entries            0                       # Number of entries that have been flushed from TLB
system.cpu.istage2_mmu.stage2_tlb.align_faults            0                       # Number of TLB faults due to alignment restrictions
system.cpu.istage2_mmu.stage2_tlb.prefetch_faults            0                       # Number of TLB faults due to prefetch
system.cpu.istage2_mmu.stage2_tlb.domain_faults            0                       # Number of TLB faults due to domain restrictions
system.cpu.istage2_mmu.stage2_tlb.perms_faults            0                       # Number of TLB faults due to permissions restrictions
system.cpu.istage2_mmu.stage2_tlb.read_accesses            0                       # DTB read accesses
system.cpu.istage2_mmu.stage2_tlb.write_accesses            0                       # DTB write accesses
system.cpu.istage2_mmu.stage2_tlb.inst_accesses            0                       # ITB inst accesses
system.cpu.istage2_mmu.stage2_tlb.hits              0                       # DTB hits
system.cpu.istage2_mmu.stage2_tlb.misses            0                       # DTB misses
system.cpu.istage2_mmu.stage2_tlb.accesses            0                       # DTB accesses
system.cpu.itb.walker.walks                     12837                       # Table walker walks requested
system.cpu.itb.walker.walksShort                12837                       # Table walker walks initiated with short descriptors
system.cpu.itb.walker.walksShortTerminationLevel::Level1         3369                       # Level at which table walker walks with short descriptors terminate
system.cpu.itb.walker.walksShortTerminationLevel::Level2         7745                       # Level at which table walker walks with short descriptors terminate
system.cpu.itb.walker.walksSquashedBefore         1723                       # Table walks squashed before starting
system.cpu.itb.walker.walkWaitTime::samples        11114                       # Table walker wait (enqueue to first request) latency
system.cpu.itb.walker.walkWaitTime::mean   758.457801                       # Table walker wait (enqueue to first request) latency
system.cpu.itb.walker.walkWaitTime::stdev  3142.171422                       # Table walker wait (enqueue to first request) latency
system.cpu.itb.walker.walkWaitTime::0-4095        10521     94.66%     94.66% # Table walker wait (enqueue to first request) latency
system.cpu.itb.walker.walkWaitTime::4096-8191          120      1.08%     95.74% # Table walker wait (enqueue to first request) latency
system.cpu.itb.walker.walkWaitTime::8192-12287          234      2.11%     97.85% # Table walker wait (enqueue to first request) latency
system.cpu.itb.walker.walkWaitTime::12288-16383          132      1.19%     99.04% # Table walker wait (enqueue to first request) latency
system.cpu.itb.walker.walkWaitTime::16384-20479           45      0.40%     99.44% # Table walker wait (enqueue to first request) latency
system.cpu.itb.walker.walkWaitTime::20480-24575           47      0.42%     99.87% # Table walker wait (enqueue to first request) latency
system.cpu.itb.walker.walkWaitTime::24576-28671            3      0.03%     99.89% # Table walker wait (enqueue to first request) latency
system.cpu.itb.walker.walkWaitTime::28672-32767            6      0.05%     99.95% # Table walker wait (enqueue to first request) latency
system.cpu.itb.walker.walkWaitTime::32768-36863            1      0.01%     99.96% # Table walker wait (enqueue to first request) latency
system.cpu.itb.walker.walkWaitTime::36864-40959            2      0.02%     99.97% # Table walker wait (enqueue to first request) latency
system.cpu.itb.walker.walkWaitTime::40960-45055            1      0.01%     99.98% # Table walker wait (enqueue to first request) latency
system.cpu.itb.walker.walkWaitTime::53248-57343            1      0.01%     99.99% # Table walker wait (enqueue to first request) latency
system.cpu.itb.walker.walkWaitTime::57344-61439            1      0.01%    100.00% # Table walker wait (enqueue to first request) latency
system.cpu.itb.walker.walkWaitTime::total        11114                       # Table walker wait (enqueue to first request) latency
system.cpu.itb.walker.walkCompletionTime::samples         5038                       # Table walker service (enqueue to completion) latency
system.cpu.itb.walker.walkCompletionTime::mean 12015.680826                       # Table walker service (enqueue to completion) latency
system.cpu.itb.walker.walkCompletionTime::gmean  9674.005789                       # Table walker service (enqueue to completion) latency
system.cpu.itb.walker.walkCompletionTime::stdev  7624.491394                       # Table walker service (enqueue to completion) latency
system.cpu.itb.walker.walkCompletionTime::0-16383         4083     81.04%     81.04% # Table walker service (enqueue to completion) latency
system.cpu.itb.walker.walkCompletionTime::16384-32767          936     18.58%     99.62% # Table walker service (enqueue to completion) latency
system.cpu.itb.walker.walkCompletionTime::32768-49151           16      0.32%     99.94% # Table walker service (enqueue to completion) latency
system.cpu.itb.walker.walkCompletionTime::49152-65535            1      0.02%     99.96% # Table walker service (enqueue to completion) latency
system.cpu.itb.walker.walkCompletionTime::131072-147455            2      0.04%    100.00% # Table walker service (enqueue to completion) latency
system.cpu.itb.walker.walkCompletionTime::total         5038                       # Table walker service (enqueue to completion) latency
system.cpu.itb.walker.walksPending::samples  23953376916                       # Table walker pending requests distribution
system.cpu.itb.walker.walksPending::mean     0.632532                       # Table walker pending requests distribution
system.cpu.itb.walker.walksPending::stdev     0.482296                       # Table walker pending requests distribution
[...]
system.iocache.demand_miss_latency::realview.ide     28155877                       # number of demand (read+write) miss cycles
system.iocache.demand_miss_latency::total     28155877                       # number of demand (read+write) miss cycles
system.iocache.overall_miss_latency::realview.ide     28155877                       # number of overall miss cycles
system.iocache.overall_miss_latency::total     28155877                       # number of overall miss cycles
system.iocache.ReadReq_accesses::realview.ide          223                       # number of ReadReq accesses(hits+misses)
system.iocache.ReadReq_accesses::total            223                       # number of ReadReq accesses(hits+misses)
system.iocache.WriteLineReq_accesses::realview.ide        36224                       # number of WriteLineReq accesses(hits+misses)
system.iocache.WriteLineReq_accesses::total        36224                       # number of WriteLineReq accesses(hits+misses)
system.iocache.demand_accesses::realview.ide          223                       # number of demand (read+write) accesses
system.iocache.demand_accesses::total             223                       # number of demand (read+write) accesses
system.iocache.overall_accesses::realview.ide          223                       # number of overall (read+write) accesses
system.iocache.overall_accesses::total            223                       # number of overall (read+write) accesses
system.iocache.ReadReq_miss_rate::realview.ide            1                       # miss rate for ReadReq accesses
system.iocache.ReadReq_miss_rate::total             1                       # miss rate for ReadReq accesses
system.iocache.WriteLineReq_miss_rate::realview.ide            1                       # miss rate for WriteLineReq accesses
system.iocache.WriteLineReq_miss_rate::total            1                       # miss rate for WriteLineReq accesses
system.iocache.demand_miss_rate::realview.ide            1                       # miss rate for demand accesses
system.iocache.demand_miss_rate::total              1                       # miss rate for demand accesses
system.iocache.overall_miss_rate::realview.ide            1                       # miss rate for overall accesses
system.iocache.overall_miss_rate::total             1                       # miss rate for overall accesses
system.iocache.ReadReq_avg_miss_latency::realview.ide 126259.538117                       # average ReadReq miss latency
system.iocache.ReadReq_avg_miss_latency::total 126259.538117                       # average ReadReq miss latency
system.iocache.WriteLineReq_avg_miss_latency::realview.ide 125611.503865                       # average WriteLineReq miss latency
system.iocache.WriteLineReq_avg_miss_latency::total 125611.503865                       # average WriteLineReq miss latency
system.iocache.demand_avg_miss_latency::realview.ide 126259.538117                       # average overall miss latency
system.iocache.demand_avg_miss_latency::total 126259.538117                       # average overall miss latency
system.iocache.overall_avg_miss_latency::realview.ide 126259.538117                       # average overall miss latency
system.iocache.overall_avg_miss_latency::total 126259.538117                       # average overall miss latency
system.iocache.blocked_cycles::no_mshrs             4                       # number of cycles access was blocked
system.iocache.blocked_cycles::no_targets            0                       # number of cycles access was blocked
system.iocache.blocked::no_mshrs                    1                       # number of cycles access was blocked
system.iocache.blocked::no_targets                  0                       # number of cycles access was blocked
system.iocache.avg_blocked_cycles::no_mshrs            4                       # average number of cycles each access was blocked
system.iocache.avg_blocked_cycles::no_targets          nan                       # average number of cycles each access was blocked
system.iocache.fast_writes                          0                       # number of fast writes performed
system.iocache.cache_copies                         0                       # number of cache copies performed
system.iocache.writebacks::writebacks           36190                       # number of writebacks
system.iocache.writebacks::total                36190                       # number of writebacks
system.iocache.ReadReq_mshr_misses::realview.ide          223                       # number of ReadReq MSHR misses
system.iocache.ReadReq_mshr_misses::total          223                       # number of ReadReq MSHR misses
system.iocache.WriteLineReq_mshr_misses::realview.ide        36224                       # number of WriteLineReq MSHR misses
system.iocache.WriteLineReq_mshr_misses::total        36224                       # number of WriteLineReq MSHR misses
system.iocache.demand_mshr_misses::realview.ide          223                       # number of demand (read+write) MSHR misses
system.iocache.demand_mshr_misses::total          223                       # number of demand (read+write) MSHR misses
system.iocache.overall_mshr_misses::realview.ide          223                       # number of overall MSHR misses
system.iocache.overall_mshr_misses::total          223                       # number of overall MSHR misses
system.iocache.ReadReq_mshr_miss_latency::realview.ide     17005877                       # number of ReadReq MSHR miss cycles
system.iocache.ReadReq_mshr_miss_latency::total     17005877                       # number of ReadReq MSHR miss cycles
system.iocache.WriteLineReq_mshr_miss_latency::realview.ide   2737535612                       # number of WriteLineReq MSHR miss cycles
system.iocache.WriteLineReq_mshr_miss_latency::total   2737535612                       # number of WriteLineReq MSHR miss cycles
system.iocache.demand_mshr_miss_latency::realview.ide     17005877                       # number of demand (read+write) MSHR miss cycles
system.iocache.demand_mshr_miss_latency::total     17005877                       # number of demand (read+write) MSHR miss cycles
system.iocache.overall_mshr_miss_latency::realview.ide     17005877                       # number of overall MSHR miss cycles
system.iocache.overall_mshr_miss_latency::total     17005877                       # number of overall MSHR miss cycles
system.iocache.ReadReq_mshr_miss_rate::realview.ide            1                       # mshr miss rate for ReadReq accesses
system.iocache.ReadReq_mshr_miss_rate::total            1                       # mshr miss rate for ReadReq accesses
system.iocache.WriteLineReq_mshr_miss_rate::realview.ide            1                       # mshr miss rate for WriteLineReq accesses
system.iocache.WriteLineReq_mshr_miss_rate::total            1                       # mshr miss rate for WriteLineReq accesses
system.iocache.demand_mshr_miss_rate::realview.ide            1                       # mshr miss rate for demand accesses
system.iocache.demand_mshr_miss_rate::total            1                       # mshr miss rate for demand accesses
system.iocache.overall_mshr_miss_rate::realview.ide            1                       # mshr miss rate for overall accesses
system.iocache.overall_mshr_miss_rate::total            1                       # mshr miss rate for overall accesses
system.iocache.ReadReq_avg_mshr_miss_latency::realview.ide 76259.538117                       # average ReadReq mshr miss latency
system.iocache.ReadReq_avg_mshr_miss_latency::total 76259.538117                       # average ReadReq mshr miss latency
system.iocache.WriteLineReq_avg_mshr_miss_latency::realview.ide 75572.427451                       # average WriteLineReq mshr miss latency
system.iocache.WriteLineReq_avg_mshr_miss_latency::total 75572.427451                       # average WriteLineReq mshr miss latency
system.iocache.demand_avg_mshr_miss_latency::realview.ide 76259.538117                       # average overall mshr miss latency
system.iocache.demand_avg_mshr_miss_latency::total 76259.538117                       # average overall mshr miss latency
system.iocache.overall_avg_mshr_miss_latency::realview.ide 76259.538117                       # average overall mshr miss latency
system.iocache.overall_avg_mshr_miss_latency::total 76259.538117                       # average overall mshr miss latency
system.iocache.no_allocate_misses                   0                       # Number of misses that were no-allocate
system.membus.trans_dist::ReadReq               34132                       # Transaction distribution
system.membus.trans_dist::ReadResp              67504                       # Transaction distribution
system.membus.trans_dist::WriteReq              27585                       # Transaction distribution
system.membus.trans_dist::WriteResp             27585                       # Transaction distribution
system.membus.trans_dist::WritebackDirty       125428                       # Transaction distribution
system.membus.trans_dist::CleanEvict             7780                       # Transaction distribution
system.membus.trans_dist::UpgradeReq             4584                       # Transaction distribution
system.membus.trans_dist::SCUpgradeReq              3                       # Transaction distribution
system.membus.trans_dist::UpgradeResp               2                       # Transaction distribution
system.membus.trans_dist::ReadExReq            133644                       # Transaction distribution
system.membus.trans_dist::ReadExResp           133644                       # Transaction distribution
system.membus.trans_dist::ReadSharedReq         33373                       # Transaction distribution
system.membus.trans_dist::InvalidateReq         36224                       # Transaction distribution
system.membus.pkt_count_system.cpu.l2cache.mem_side::system.bridge.slave       105478                       # Packet count per connected master and slave (bytes)
system.membus.pkt_count_system.cpu.l2cache.mem_side::system.realview.nvmem.port           14                       # Packet count per connected master and slave (bytes)
system.membus.pkt_count_system.cpu.l2cache.mem_side::system.realview.gic.pio         2076                       # Packet count per connected master and slave (bytes)
system.membus.pkt_count_system.cpu.l2cache.mem_side::system.physmem.port       450558                       # Packet count per connected master and slave (bytes)
system.membus.pkt_count_system.cpu.l2cache.mem_side::total       558126                       # Packet count per connected master and slave (bytes)
system.membus.pkt_count_system.iocache.mem_side::system.physmem.port        72875                       # Packet count per connected master and slave (bytes)
system.membus.pkt_count_system.iocache.mem_side::total        72875                       # Packet count per connected master and slave (bytes)
system.membus.pkt_count::total                 631001                       # Packet count per connected master and slave (bytes)
system.membus.pkt_size_system.cpu.l2cache.mem_side::system.bridge.slave       159125                       # Cumulative packet size per connected master and slave (bytes)
system.membus.pkt_size_system.cpu.l2cache.mem_side::system.realview.nvmem.port          112                       # Cumulative packet size per connected master and slave (bytes)
system.membus.pkt_size_system.cpu.l2cache.mem_side::system.realview.gic.pio         4152                       # Cumulative packet size per connected master and slave (bytes)
system.membus.pkt_size_system.cpu.l2cache.mem_side::system.physmem.port     16435996                       # Cumulative packet size per connected master and slave (bytes)
system.membus.pkt_size_system.cpu.l2cache.mem_side::total     16599385                       # Cumulative packet size per connected master and slave (bytes)
system.membus.pkt_size_system.iocache.mem_side::system.physmem.port      2317120                       # Cumulative packet size per connected master and slave (bytes)
system.membus.pkt_size_system.iocache.mem_side::total      2317120                       # Cumulative packet size per connected master and slave (bytes)
system.membus.pkt_size::total                18916505                       # Cumulative packet size per connected master and slave (bytes)
system.membus.snoops                              487                       # Total snoops (count)
system.membus.snoop_fanout::samples            402766                       # Request fanout histogram
system.membus.snoop_fanout::mean                    1                       # Request fanout histogram
system.membus.snoop_fanout::stdev                   0                       # Request fanout histogram
system.membus.snoop_fanout::underflows              0      0.00%      0.00% # Request fanout histogram
system.membus.snoop_fanout::0                       0      0.00%      0.00% # Request fanout histogram
system.membus.snoop_fanout::1                  402766    100.00%    100.00% # Request fanout histogram
system.membus.snoop_fanout::2                       0      0.00%    100.00% # Request fanout histogram
system.membus.snoop_fanout::overflows               0      0.00%    100.00% # Request fanout histogram
system.membus.snoop_fanout::min_value               1                       # Request fanout histogram
system.membus.snoop_fanout::max_value               1                       # Request fanout histogram
system.membus.snoop_fanout::total              402766                       # Request fanout histogram
system.membus.reqLayer0.occupancy            83667000                       # Layer occupancy (ticks)
system.membus.reqLayer0.utilization               0.0                       # Layer utilization (%)
system.membus.reqLayer1.occupancy                9000                       # Layer occupancy (ticks)
system.membus.reqLayer1.utilization               0.0                       # Layer utilization (%)
system.membus.reqLayer2.occupancy             1740000                       # Layer occupancy (ticks)
system.membus.reqLayer2.utilization               0.0                       # Layer utilization (%)
system.membus.reqLayer5.occupancy           876048370                       # Layer occupancy (ticks)
system.membus.reqLayer5.utilization               0.0                       # Layer utilization (%)
system.membus.respLayer2.occupancy          978678250                       # Layer occupancy (ticks)
system.membus.respLayer2.utilization              0.0                       # Layer utilization (%)
system.membus.respLayer3.occupancy            1182123                       # Layer occupancy (ticks)
system.membus.respLayer3.utilization              0.0                       # Layer utilization (%)
system.realview.dcc.osc_cpu.clock               16667                       # Clock period in ticks
system.realview.dcc.osc_ddr.clock               25000                       # Clock period in ticks
system.realview.dcc.osc_hsbm.clock              25000                       # Clock period in ticks
system.realview.dcc.osc_pxl.clock               42105                       # Clock period in ticks
system.realview.dcc.osc_smb.clock               20000                       # Clock period in ticks
system.realview.dcc.osc_sys.clock               16667                       # Clock period in ticks
system.realview.ethernet.descDMAReads               0                       # Number of descriptors the device read w/ DMA
system.realview.ethernet.descDMAWrites              0                       # Number of descriptors the device wrote w/ DMA
system.realview.ethernet.descDmaReadBytes            0                       # number of descriptor bytes read w/ DMA
system.realview.ethernet.descDmaWriteBytes            0                       # number of descriptor bytes write w/ DMA
system.realview.ethernet.postedSwi                  0                       # number of software interrupts posted to CPU
system.realview.ethernet.coalescedSwi             nan                       # average number of Swi's coalesced into each post
system.realview.ethernet.totalSwi                   0                       # total number of Swi written to ISR
system.realview.ethernet.postedRxIdle               0                       # number of rxIdle interrupts posted to CPU
system.realview.ethernet.coalescedRxIdle          nan                       # average number of RxIdle's coalesced into each post
system.realview.ethernet.totalRxIdle                0                       # total number of RxIdle written to ISR
system.realview.ethernet.postedRxOk                 0                       # number of RxOk interrupts posted to CPU
system.realview.ethernet.coalescedRxOk            nan                       # average number of RxOk's coalesced into each post
system.realview.ethernet.totalRxOk                  0                       # total number of RxOk written to ISR
system.realview.ethernet.postedRxDesc               0                       # number of RxDesc interrupts posted to CPU
system.realview.ethernet.coalescedRxDesc          nan                       # average number of RxDesc's coalesced into each post
system.realview.ethernet.totalRxDesc                0                       # total number of RxDesc written to ISR
system.realview.ethernet.postedTxOk                 0                       # number of TxOk interrupts posted to CPU
system.realview.ethernet.coalescedTxOk            nan                       # average number of TxOk's coalesced into each post
system.realview.ethernet.totalTxOk                  0                       # total number of TxOk written to ISR
system.realview.ethernet.postedTxIdle               0                       # number of TxIdle interrupts posted to CPU
system.realview.ethernet.coalescedTxIdle          nan                       # average number of TxIdle's coalesced into each post
system.realview.ethernet.totalTxIdle                0                       # total number of TxIdle written to ISR
system.realview.ethernet.postedTxDesc               0                       # number of TxDesc interrupts posted to CPU
system.realview.ethernet.coalescedTxDesc          nan                       # average number of TxDesc's coalesced into each post
system.realview.ethernet.totalTxDesc                0                       # total number of TxDesc written to ISR
system.realview.ethernet.postedRxOrn                0                       # number of RxOrn posted to CPU
system.realview.ethernet.coalescedRxOrn           nan                       # average number of RxOrn's coalesced into each post
system.realview.ethernet.totalRxOrn                 0                       # total number of RxOrn written to ISR
system.realview.ethernet.coalescedTotal           nan                       # average number of interrupts coalesced into each post
system.realview.ethernet.postedInterrupts            0                       # number of posts to CPU
system.realview.ethernet.droppedPackets             0                       # number of packets dropped
system.realview.mcc.osc_clcd.clock              42105                       # Clock period in ticks
system.realview.mcc.osc_mcc.clock               20000                       # Clock period in ticks
system.realview.mcc.osc_peripheral.clock        41667                       # Clock period in ticks
system.realview.mcc.osc_system_bus.clock        41667                       # Clock period in ticks
system.cpu.kern.inst.arm                            0                       # number of arm instructions executed
system.cpu.kern.inst.quiesce                     3037                       # number of quiesce instructions executed

---------- End Simulation Statistics   ----------
