
---------- Begin Simulation Statistics ----------
sim_seconds                                  2.542203                       # Number of seconds simulated
sim_ticks                                2542202956000                       # Number of ticks simulated
final_tick                               2542202956000                       # Number of ticks from beginning of simulation (restored from checkpoints and never reset)
sim_freq                                 1000000000000                       # Frequency of simulated ticks
host_inst_rate                                  40853                       # Simulator instruction rate (inst/s)
host_op_rate                                    49218                       # Simulator op (including micro ops) rate (op/s)
host_tick_rate                             1721973071                       # Simulator tick rate (ticks/s)
host_mem_usage                                 411692                       # Number of bytes of host memory used
host_seconds                                  1476.33                       # Real time elapsed on the host
sim_insts                                    60311945                       # Number of instructions simulated
sim_ops                                      72661478                       # Number of ops (including micro ops) simulated
system.voltage_domain.voltage                       1                       # Voltage in Volts
system.clk_domain.clock                          1000                       # Clock period in ticks
system.realview.nvmem.bytes_read::cpu.inst           48                       # Number of bytes read from this memory
system.realview.nvmem.bytes_read::total            48                       # Number of bytes read from this memory
system.realview.nvmem.bytes_inst_read::cpu.inst           48                       # Number of instructions bytes read from this memory
system.realview.nvmem.bytes_inst_read::total           48                       # Number of instructions bytes read from this memory
system.realview.nvmem.num_reads::cpu.inst            3                       # Number of read requests responded to by this memory
system.realview.nvmem.num_reads::total              3                       # Number of read requests responded to by this memory
system.realview.nvmem.bw_read::cpu.inst            19                       # Total read bandwidth from this memory (bytes/s)
system.realview.nvmem.bw_read::total               19                       # Total read bandwidth from this memory (bytes/s)
system.realview.nvmem.bw_inst_read::cpu.inst           19                       # Instruction read bandwidth from this memory (bytes/s)
system.realview.nvmem.bw_inst_read::total           19                       # Instruction read bandwidth from this memory (bytes/s)
system.realview.nvmem.bw_total::cpu.inst           19                       # Total bandwidth to/from this memory (bytes/s)
system.realview.nvmem.bw_total::total              19                       # Total bandwidth to/from this memory (bytes/s)
system.physmem.bytes_read::realview.clcd    121110528                       # Number of bytes read from this memory
system.physmem.bytes_read::cpu.dtb.walker          640                       # Number of bytes read from this memory
system.physmem.bytes_read::cpu.itb.walker          192                       # Number of bytes read from this memory
system.physmem.bytes_read::cpu.inst            798576                       # Number of bytes read from this memory
system.physmem.bytes_read::cpu.data           9072728                       # Number of bytes read from this memory
system.physmem.bytes_read::total            130982664                       # Number of bytes read from this memory
system.physmem.bytes_inst_read::cpu.inst       798576                       # Number of instructions bytes read from this memory
system.physmem.bytes_inst_read::total          798576                       # Number of instructions bytes read from this memory
system.physmem.bytes_written::writebacks      3743232                       # Number of bytes written to this memory
system.physmem.bytes_written::cpu.data        3016072                       # Number of bytes written to this memory
system.physmem.bytes_written::total           6759304                       # Number of bytes written to this memory
system.physmem.num_reads::realview.clcd      15138816                       # Number of read requests responded to by this memory
system.physmem.num_reads::cpu.dtb.walker           10                       # Number of read requests responded to by this memory
system.physmem.num_reads::cpu.itb.walker            3                       # Number of read requests responded to by this memory
system.physmem.num_reads::cpu.inst              14991                       # Number of read requests responded to by this memory
system.physmem.num_reads::cpu.data             141787                       # Number of read requests responded to by this memory
system.physmem.num_reads::total              15295607                       # Number of read requests responded to by this memory
system.physmem.num_writes::writebacks           58488                       # Number of write requests responded to by this memory
system.physmem.num_writes::cpu.data            754018                       # Number of write requests responded to by this memory
system.physmem.num_writes::total               812506                       # Number of write requests responded to by this memory
system.physmem.bw_read::realview.clcd        47639992                       # Total read bandwidth from this memory (bytes/s)
system.physmem.bw_read::cpu.dtb.walker            252                       # Total read bandwidth from this memory (bytes/s)
system.physmem.bw_read::cpu.itb.walker             76                       # Total read bandwidth from this memory (bytes/s)
system.physmem.bw_read::cpu.inst               314128                       # Total read bandwidth from this memory (bytes/s)
system.physmem.bw_read::cpu.data              3568845                       # Total read bandwidth from this memory (bytes/s)
system.physmem.bw_read::total                51523292                       # Total read bandwidth from this memory (bytes/s)
system.physmem.bw_inst_read::cpu.inst          314128                       # Instruction read bandwidth from this memory (bytes/s)
system.physmem.bw_inst_read::total             314128                       # Instruction read bandwidth from this memory (bytes/s)
system.physmem.bw_write::writebacks           1472436                       # Write bandwidth from this memory (bytes/s)
system.physmem.bw_write::cpu.data             1186401                       # Write bandwidth from this memory (bytes/s)
system.physmem.bw_write::total                2658837                       # Write bandwidth from this memory (bytes/s)
system.physmem.bw_total::writebacks           1472436                       # Total bandwidth to/from this memory (bytes/s)
system.physmem.bw_total::realview.clcd       47639992                       # Total bandwidth to/from this memory (bytes/s)
system.physmem.bw_total::cpu.dtb.walker           252                       # Total bandwidth to/from this memory (bytes/s)
system.physmem.bw_total::cpu.itb.walker            76                       # Total bandwidth to/from this memory (bytes/s)
system.physmem.bw_total::cpu.inst              314128                       # Total bandwidth to/from this memory (bytes/s)
system.physmem.bw_total::cpu.data             4755246                       # Total bandwidth to/from this memory (bytes/s)
system.physmem.bw_total::total               54182129                       # Total bandwidth to/from this memory (bytes/s)
system.physmem.readReqs                      15295607                       # Number of read requests accepted
system.physmem.writeReqs                       812506                       # Number of write requests accepted
system.physmem.readBursts                    15295607                       # Number of DRAM read bursts, including those serviced by the write queue
system.physmem.writeBursts                     812506                       # Number of DRAM write bursts, including those merged in the write queue
system.physmem.bytesReadDRAM                976934144                       # Total number of bytes read from DRAM
system.physmem.bytesReadWrQ                   1984704                       # Total number of bytes read from write queue
system.physmem.bytesWritten                   6778304                       # Total number of bytes written to DRAM
system.physmem.bytesReadSys                 130982664                       # Total read bytes from the system interface side
system.physmem.bytesWrittenSys                6759304                       # Total written bytes from the system interface side
system.physmem.servicedByWrQ                    31011                       # Number of DRAM read bursts serviced by the write queue
system.physmem.mergedWrBursts                  706576                       # Number of DRAM write bursts merged with an existing one
system.physmem.neitherReadNorWriteReqs           4612                       # Number of requests that are neither read nor write
system.physmem.perBankRdBursts::0              955786                       # Per bank write bursts
system.physmem.perBankRdBursts::1              955478                       # Per bank write bursts
system.physmem.perBankRdBursts::2              953003                       # Per bank write bursts
system.physmem.perBankRdBursts::3              951059                       # Per bank write bursts
system.physmem.perBankRdBursts::4              958601                       # Per bank write bursts
system.physmem.perBankRdBursts::5              955602                       # Per bank write bursts
system.physmem.perBankRdBursts::6              952653                       # Per bank write bursts
system.physmem.perBankRdBursts::7              950407                       # Per bank write bursts
system.physmem.perBankRdBursts::8              956154                       # Per bank write bursts
system.physmem.perBankRdBursts::9              955874                       # Per bank write bursts
system.physmem.perBankRdBursts::10             952889                       # Per bank write bursts
system.physmem.perBankRdBursts::11             950148                       # Per bank write bursts
system.physmem.perBankRdBursts::12             956166                       # Per bank write bursts
system.physmem.perBankRdBursts::13             955918                       # Per bank write bursts
system.physmem.perBankRdBursts::14             953918                       # Per bank write bursts
system.physmem.perBankRdBursts::15             950940                       # Per bank write bursts
system.physmem.perBankWrBursts::0                6546                       # Per bank write bursts
system.physmem.perBankWrBursts::1                6352                       # Per bank write bursts
system.physmem.perBankWrBursts::2                6488                       # Per bank write bursts
system.physmem.perBankWrBursts::3                6518                       # Per bank write bursts
system.physmem.perBankWrBursts::4                6421                       # Per bank write bursts
system.physmem.perBankWrBursts::5                6701                       # Per bank write bursts
system.physmem.perBankWrBursts::6                6665                       # Per bank write bursts
system.physmem.perBankWrBursts::7                6611                       # Per bank write bursts
system.physmem.perBankWrBursts::8                6966                       # Per bank write bursts
system.physmem.perBankWrBursts::9                6759                       # Per bank write bursts
system.physmem.perBankWrBursts::10               6421                       # Per bank write bursts
system.physmem.perBankWrBursts::11               6055                       # Per bank write bursts
system.physmem.perBankWrBursts::12               7037                       # Per bank write bursts
system.physmem.perBankWrBursts::13               6645                       # Per bank write bursts
system.physmem.perBankWrBursts::14               6920                       # Per bank write bursts
system.physmem.perBankWrBursts::15               6806                       # Per bank write bursts
system.physmem.numRdRetry                           0                       # Number of times read queue was full causing retry
system.physmem.numWrRetry                           0                       # Number of times write queue was full causing retry
system.physmem.totGap                    2542201638000                       # Total gap between requests
system.physmem.readPktSize::0                       0                       # Read request sizes (log2)
system.physmem.readPktSize::1                       0                       # Read request sizes (log2)
system.physmem.readPktSize::2                      18                       # Read request sizes (log2)
system.physmem.readPktSize::3                15138826                       # Read request sizes (log2)
system.physmem.readPktSize::4                    3351                       # Read request sizes (log2)
system.physmem.readPktSize::5                       0                       # Read request sizes (log2)
system.physmem.readPktSize::6                  153412                       # Read request sizes (log2)
system.physmem.writePktSize::0                      0                       # Write request sizes (log2)
system.physmem.writePktSize::1                      0                       # Write request sizes (log2)
system.physmem.writePktSize::2                 754018                       # Write request sizes (log2)
system.physmem.writePktSize::3                      0                       # Write request sizes (log2)
system.physmem.writePktSize::4                      0                       # Write request sizes (log2)
system.physmem.writePktSize::5                      0                       # Write request sizes (log2)
system.physmem.writePktSize::6                  58488                       # Write request sizes (log2)
system.physmem.rdQLenPdf::0                   1110293                       # What read queue length does an incoming req see
system.physmem.rdQLenPdf::1                    964892                       # What read queue length does an incoming req see
system.physmem.rdQLenPdf::2                    965548                       # What read queue length does an incoming req see
system.physmem.rdQLenPdf::3                   1076032                       # What read queue length does an incoming req see
system.physmem.rdQLenPdf::4                    973735                       # What read queue length does an incoming req see
system.physmem.rdQLenPdf::5                   1036027                       # What read queue length does an incoming req see
system.physmem.rdQLenPdf::6                   2680967                       # What read queue length does an incoming req see
system.physmem.rdQLenPdf::7                   2587988                       # What read queue length does an incoming req see
system.physmem.rdQLenPdf::8                   3368391                       # What read queue length does an incoming req see
system.physmem.rdQLenPdf::9                    128855                       # What read queue length does an incoming req see
system.physmem.rdQLenPdf::10                   111642                       # What read queue length does an incoming req see
system.physmem.rdQLenPdf::11                   103064                       # What read queue length does an incoming req see
system.physmem.rdQLenPdf::12                    98734                       # What read queue length does an incoming req see
system.physmem.rdQLenPdf::13                    20085                       # What read queue length does an incoming req see
system.physmem.rdQLenPdf::14                    19255                       # What read queue length does an incoming req see
system.physmem.rdQLenPdf::15                    18985                       # What read queue length does an incoming req see
system.physmem.rdQLenPdf::16                       85                       # What read queue length does an incoming req see
system.physmem.rdQLenPdf::17                       10                       # What read queue length does an incoming req see
system.physmem.rdQLenPdf::18                        5                       # What read queue length does an incoming req see
system.physmem.rdQLenPdf::19                        3                       # What read queue length does an incoming req see
system.physmem.rdQLenPdf::20                        0                       # What read queue length does an incoming req see
system.physmem.rdQLenPdf::21                        0                       # What read queue length does an incoming req see
system.physmem.rdQLenPdf::22                        0                       # What read queue length does an incoming req see
system.physmem.rdQLenPdf::23                        0                       # What read queue length does an incoming req see
system.physmem.rdQLenPdf::24                        0                       # What read queue length does an incoming req see
system.physmem.rdQLenPdf::25                        0                       # What read queue length does an incoming req see
system.physmem.rdQLenPdf::26                        0                       # What read queue length does an incoming req see
system.physmem.rdQLenPdf::27                        0                       # What read queue length does an incoming req see
system.physmem.rdQLenPdf::28                        0                       # What read queue length does an incoming req see
system.physmem.rdQLenPdf::29                        0                       # What read queue length does an incoming req see
system.physmem.rdQLenPdf::30                        0                       # What read queue length does an incoming req see
system.physmem.rdQLenPdf::31                        0                       # What read queue length does an incoming req see
system.physmem.wrQLenPdf::0                         1                       # What write queue length does an incoming req see
system.physmem.wrQLenPdf::1                         1                       # What write queue length does an incoming req see
system.physmem.wrQLenPdf::2                         1                       # What write queue length does an incoming req see
system.physmem.wrQLenPdf::3                         1                       # What write queue length does an incoming req see
system.physmem.wrQLenPdf::4                         1                       # What write queue length does an incoming req see
system.physmem.wrQLenPdf::5                         1                       # What write queue length does an incoming req see
system.physmem.wrQLenPdf::6                         1                       # What write queue length does an incoming req see
system.physmem.wrQLenPdf::7                         1                       # What write queue length does an incoming req see
system.physmem.wrQLenPdf::8                         1                       # What write queue length does an incoming req see
system.physmem.wrQLenPdf::9                         1                       # What write queue length does an incoming req see
system.physmem.wrQLenPdf::10                        1                       # What write queue length does an incoming req see
system.physmem.wrQLenPdf::11                        1                       # What write queue length does an incoming req see
system.physmem.wrQLenPdf::12                        1                       # What write queue length does an incoming req see
system.physmem.wrQLenPdf::13                        1                       # What write queue length does an incoming req see
system.physmem.wrQLenPdf::14                        1                       # What write queue length does an incoming req see
system.physmem.wrQLenPdf::15                     2635                       # What write queue length does an incoming req see
system.physmem.wrQLenPdf::16                     2946                       # What write queue length does an incoming req see
system.physmem.wrQLenPdf::17                     5311                       # What write queue length does an incoming req see
system.physmem.wrQLenPdf::18                     6283                       # What write queue length does an incoming req see
system.physmem.wrQLenPdf::19                     6365                       # What write queue length does an incoming req see
system.physmem.wrQLenPdf::20                     6331                       # What write queue length does an incoming req see
system.physmem.wrQLenPdf::21                     6319                       # What write queue length does an incoming req see
system.physmem.wrQLenPdf::22                     6592                       # What write queue length does an incoming req see
system.physmem.wrQLenPdf::23                     6454                       # What write queue length does an incoming req see
system.physmem.wrQLenPdf::24                     6382                       # What write queue length does an incoming req see
system.physmem.wrQLenPdf::25                     6354                       # What write queue length does an incoming req see
system.physmem.wrQLenPdf::26                     6272                       # What write queue length does an incoming req see
system.physmem.wrQLenPdf::27                     6263                       # What write queue length does an incoming req see
system.physmem.wrQLenPdf::28                     6280                       # What write queue length does an incoming req see
system.physmem.wrQLenPdf::29                     6248                       # What write queue length does an incoming req see
system.physmem.wrQLenPdf::30                     6241                       # What write queue length does an incoming req see
system.physmem.wrQLenPdf::31                     6236                       # What write queue length does an incoming req see
system.physmem.wrQLenPdf::32                     6213                       # What write queue length does an incoming req see
system.physmem.wrQLenPdf::33                       87                       # What write queue length does an incoming req see
system.physmem.wrQLenPdf::34                       62                       # What write queue length does an incoming req see
system.physmem.wrQLenPdf::35                       37                       # What write queue length does an incoming req see
system.physmem.wrQLenPdf::36                        4                       # What write queue length does an incoming req see
system.physmem.wrQLenPdf::37                        0                       # What write queue length does an incoming req see
system.physmem.wrQLenPdf::38                        0                       # What write queue length does an incoming req see
system.physmem.wrQLenPdf::39                        0                       # What write queue length does an incoming req see
system.physmem.wrQLenPdf::40                        0                       # What write queue length does an incoming req see
system.physmem.wrQLenPdf::41                        0                       # What write queue length does an incoming req see
system.physmem.wrQLenPdf::42                        0                       # What write queue length does an incoming req see
system.physmem.wrQLenPdf::43                        0                       # What write queue length does an incoming req see
system.physmem.wrQLenPdf::44                        0                       # What write queue length does an incoming req see
system.physmem.wrQLenPdf::45                        0                       # What write queue length does an incoming req see
system.physmem.wrQLenPdf::46                        0                       # What write queue length does an incoming req see
system.physmem.wrQLenPdf::47                        0                       # What write queue length does an incoming req see
system.physmem.wrQLenPdf::48                        0                       # What write queue length does an incoming req see
system.physmem.wrQLenPdf::49                        0                       # What write queue length does an incoming req see
system.physmem.wrQLenPdf::50                        0                       # What write queue length does an incoming req see
system.physmem.wrQLenPdf::51                        0                       # What write queue length does an incoming req see
system.physmem.wrQLenPdf::52                        0                       # What write queue length does an incoming req see
system.physmem.wrQLenPdf::53                        0                       # What write queue length does an incoming req see
system.physmem.wrQLenPdf::54                        0                       # What write queue length does an incoming req see
system.physmem.wrQLenPdf::55                        0                       # What write queue length does an incoming req see
system.physmem.wrQLenPdf::56                        0                       # What write queue length does an incoming req see
system.physmem.wrQLenPdf::57                        0                       # What write queue length does an incoming req see
system.physmem.wrQLenPdf::58                        0                       # What write queue length does an incoming req see
system.physmem.wrQLenPdf::59                        0                       # What write queue length does an incoming req see
system.physmem.wrQLenPdf::60                        0                       # What write queue length does an incoming req see
system.physmem.wrQLenPdf::61                        0                       # What write queue length does an incoming req see
system.physmem.wrQLenPdf::62                        0                       # What write queue length does an incoming req see
system.physmem.wrQLenPdf::63                        0                       # What write queue length does an incoming req see
system.physmem.bytesPerActivate::samples      1010606                       # Bytes accessed per row activation
system.physmem.bytesPerActivate::mean      973.388688                       # Bytes accessed per row activation
system.physmem.bytesPerActivate::gmean     909.020446                       # Bytes accessed per row activation
system.physmem.bytesPerActivate::stdev     200.819397                       # Bytes accessed per row activation
system.physmem.bytesPerActivate::0-127          22711      2.25%      2.25% # Bytes accessed per row activation
system.physmem.bytesPerActivate::128-255        19828      1.96%      4.21% # Bytes accessed per row activation
system.physmem.bytesPerActivate::256-383         8563      0.85%      5.06% # Bytes accessed per row activation
system.physmem.bytesPerActivate::384-511         2249      0.22%      5.28% # Bytes accessed per row activation
system.physmem.bytesPerActivate::512-639         2594      0.26%      5.54% # Bytes accessed per row activation
system.physmem.bytesPerActivate::640-767         1688      0.17%      5.70% # Bytes accessed per row activation
system.physmem.bytesPerActivate::768-895         8931      0.88%      6.59% # Bytes accessed per row activation
system.physmem.bytesPerActivate::896-1023          959      0.09%      6.68% # Bytes accessed per row activation
system.physmem.bytesPerActivate::1024-1151       943083     93.32%    100.00% # Bytes accessed per row activation
system.physmem.bytesPerActivate::total        1010606                       # Bytes accessed per row activation
system.physmem.rdPerTurnAround::samples          6196                       # Reads before turning the bus around for writes
system.physmem.rdPerTurnAround::mean      2463.620239                       # Reads before turning the bus around for writes
system.physmem.rdPerTurnAround::stdev    113702.310017                       # Reads before turning the bus around for writes
system.physmem.rdPerTurnAround::0-524287         6191     99.92%     99.92% # Reads before turning the bus around for writes
system.physmem.rdPerTurnAround::524288-1.04858e+06            2      0.03%     99.95% # Reads before turning the bus around for writes
system.physmem.rdPerTurnAround::1.04858e+06-1.57286e+06            2      0.03%     99.98% # Reads before turning the bus around for writes
system.physmem.rdPerTurnAround::8.38861e+06-8.9129e+06            1      0.02%    100.00% # Reads before turning the bus around for writes
system.physmem.rdPerTurnAround::total            6196                       # Reads before turning the bus around for writes
system.physmem.wrPerTurnAround::samples          6196                       # Writes before turning the bus around for reads
system.physmem.wrPerTurnAround::mean        17.093447                       # Writes before turning the bus around for reads
system.physmem.wrPerTurnAround::gmean       17.042337                       # Writes before turning the bus around for reads
system.physmem.wrPerTurnAround::stdev        1.354685                       # Writes before turning the bus around for reads
system.physmem.wrPerTurnAround::16               3441     55.54%     55.54% # Writes before turning the bus around for reads
system.physmem.wrPerTurnAround::17                 45      0.73%     56.26% # Writes before turning the bus around for reads
system.physmem.wrPerTurnAround::18               1714     27.66%     83.93% # Writes before turning the bus around for reads
system.physmem.wrPerTurnAround::19                868     14.01%     97.93% # Writes before turning the bus around for reads
system.physmem.wrPerTurnAround::20                 47      0.76%     98.69% # Writes before turning the bus around for reads
system.physmem.wrPerTurnAround::21                 22      0.36%     99.05% # Writes before turning the bus around for reads
system.physmem.wrPerTurnAround::22                 27      0.44%     99.48% # Writes before turning the bus around for reads
system.physmem.wrPerTurnAround::23                 21      0.34%     99.82% # Writes before turning the bus around for reads
system.physmem.wrPerTurnAround::24                 10      0.16%     99.98% # Writes before turning the bus around for reads
system.physmem.wrPerTurnAround::27                  1      0.02%    100.00% # Writes before turning the bus around for reads
system.physmem.wrPerTurnAround::total            6196                       # Writes before turning the bus around for reads
system.physmem.totQLat                   395449280750                       # Total ticks spent queuing
system.physmem.totMemAccLat              681660455750                       # Total ticks spent from burst creation until serviced by the DRAM
system.physmem.totBusLat                  76322980000                       # Total ticks spent in databus transfers
system.physmem.avgQLat                       25906.31                       # Average queueing delay per DRAM burst
system.physmem.avgBusLat                      5000.00                       # Average bus latency per DRAM burst
system.physmem.avgMemAccLat                  44656.31                       # Average memory access latency per DRAM burst
system.physmem.avgRdBW                         384.29                       # Average DRAM read bandwidth in MiByte/s
system.physmem.avgWrBW                           2.67                       # Average achieved write bandwidth in MiByte/s
system.physmem.avgRdBWSys                       51.52                       # Average system read bandwidth in MiByte/s
system.physmem.avgWrBWSys                        2.66                       # Average system write bandwidth in MiByte/s
system.physmem.peakBW                        12800.00                       # Theoretical peak bandwidth in MiByte/s
system.physmem.busUtil                           3.02                       # Data bus utilization in percentage
system.physmem.busUtilRead                       3.00                       # Data bus utilization in percentage for reads
system.physmem.busUtilWrite                      0.02                       # Data bus utilization in percentage for writes
system.physmem.avgRdQLen                         6.20                       # Average read queue length when enqueuing
system.physmem.avgWrQLen                        23.61                       # Average write queue length when enqueuing
system.physmem.readRowHits                   14269193                       # Number of row buffer hits during reads
system.physmem.writeRowHits                     90708                       # Number of row buffer hits during writes
system.physmem.readRowHitRate                   93.48                       # Row buffer hit rate for reads
system.physmem.writeRowHitRate                  85.63                       # Row buffer hit rate for writes
system.physmem.avgGap                       157821.19                       # Average gap between requests
system.physmem.pageHitRate                      93.42                       # Row buffer hit rate, read and write combined
system.physmem.memoryStateTime::IDLE     2194513894000                       # Time in different power states
system.physmem.memoryStateTime::REF       84889480000                       # Time in different power states
system.physmem.memoryStateTime::PRE_PDN             0                       # Time in different power states
system.physmem.memoryStateTime::ACT      262799464750                       # Time in different power states
system.physmem.memoryStateTime::ACT_PDN             0                       # Time in different power states
system.membus.throughput                     55125441                       # Throughput (bytes/s)
system.membus.trans_dist::ReadReq            16348039                       # Transaction distribution
system.membus.trans_dist::ReadResp           16348039                       # Transaction distribution
system.membus.trans_dist::WriteReq             763357                       # Transaction distribution
system.membus.trans_dist::WriteResp            763357                       # Transaction distribution
system.membus.trans_dist::Writeback             58488                       # Transaction distribution
system.membus.trans_dist::UpgradeReq             4612                       # Transaction distribution
system.membus.trans_dist::UpgradeResp            4612                       # Transaction distribution
system.membus.trans_dist::ReadExReq            131651                       # Transaction distribution
system.membus.trans_dist::ReadExResp           131651                       # Transaction distribution
system.membus.pkt_count_system.cpu.l2cache.mem_side::system.bridge.slave      2383056                       # Packet count per connected master and slave (bytes)
system.membus.pkt_count_system.cpu.l2cache.mem_side::system.realview.nvmem.port            6                       # Packet count per connected master and slave (bytes)
system.membus.pkt_count_system.cpu.l2cache.mem_side::system.realview.gic.pio         3780                       # Packet count per connected master and slave (bytes)
system.membus.pkt_count_system.cpu.l2cache.mem_side::system.realview.a9scu.pio            2                       # Packet count per connected master and slave (bytes)
system.membus.pkt_count_system.cpu.l2cache.mem_side::system.physmem.port      1889330                       # Packet count per connected master and slave (bytes)
system.membus.pkt_count_system.cpu.l2cache.mem_side::total      4276174                       # Packet count per connected master and slave (bytes)
system.membus.pkt_count_system.iocache.mem_side::system.physmem.port     30277632                       # Packet count per connected master and slave (bytes)
system.membus.pkt_count_system.iocache.mem_side::total     30277632                       # Packet count per connected master and slave (bytes)
system.membus.pkt_count::total               34553806                       # Packet count per connected master and slave (bytes)
system.membus.tot_pkt_size_system.cpu.l2cache.mem_side::system.bridge.slave      2390478                       # Cumulative packet size per connected master and slave (bytes)
system.membus.tot_pkt_size_system.cpu.l2cache.mem_side::system.realview.nvmem.port           48                       # Cumulative packet size per connected master and slave (bytes)
system.membus.tot_pkt_size_system.cpu.l2cache.mem_side::system.realview.gic.pio         7560                       # Cumulative packet size per connected master and slave (bytes)
system.membus.tot_pkt_size_system.cpu.l2cache.mem_side::system.realview.a9scu.pio            4                       # Cumulative packet size per connected master and slave (bytes)
system.membus.tot_pkt_size_system.cpu.l2cache.mem_side::system.physmem.port     16631440                       # Cumulative packet size per connected master and slave (bytes)
system.membus.tot_pkt_size_system.cpu.l2cache.mem_side::total     19029530                       # Cumulative packet size per connected master and slave (bytes)
system.membus.tot_pkt_size_system.iocache.mem_side::system.physmem.port    121110528                       # Cumulative packet size per connected master and slave (bytes)
system.membus.tot_pkt_size_system.iocache.mem_side::total    121110528                       # Cumulative packet size per connected master and slave (bytes)
system.membus.tot_pkt_size::total           140140058                       # Cumulative packet size per connected master and slave (bytes)
system.membus.data_through_bus              140140058                       # Total data (bytes)
system.membus.snoop_data_through_bus                0                       # Total snoop data (bytes)
system.membus.reqLayer0.occupancy          1558440500                       # Layer occupancy (ticks)
system.membus.reqLayer0.utilization               0.1                       # Layer utilization (%)
system.membus.reqLayer1.occupancy                3500                       # Layer occupancy (ticks)
system.membus.reqLayer1.utilization               0.0                       # Layer utilization (%)
system.membus.reqLayer2.occupancy             3512000                       # Layer occupancy (ticks)
system.membus.reqLayer2.utilization               0.0                       # Layer utilization (%)
system.membus.reqLayer4.occupancy                1000                       # Layer occupancy (ticks)
system.membus.reqLayer4.utilization               0.0                       # Layer utilization (%)
system.membus.reqLayer6.occupancy         17513415500                       # Layer occupancy (ticks)
system.membus.reqLayer6.utilization               0.7                       # Layer utilization (%)
system.membus.respLayer1.occupancy         4726913870                       # Layer occupancy (ticks)
system.membus.respLayer1.utilization              0.2                       # Layer utilization (%)
system.membus.respLayer2.occupancy        37423565460                       # Layer occupancy (ticks)
system.membus.respLayer2.utilization              1.5                       # Layer utilization (%)
system.cf0.dma_read_full_pages                      0                       # Number of full page size DMA reads (not PRD).
system.cf0.dma_read_bytes                           0                       # Number of bytes transfered via DMA reads (not PRD).
system.cf0.dma_read_txs                             0                       # Number of DMA read transactions (not PRD).
system.cf0.dma_write_full_pages                     0                       # Number of full page size DMA writes.
system.cf0.dma_write_bytes                          0                       # Number of bytes transfered via DMA writes.
system.cf0.dma_write_txs                            0                       # Number of DMA write transactions.
system.iobus.throughput                      48580309                       # Throughput (bytes/s)
system.iobus.trans_dist::ReadReq             16322168                       # Transaction distribution
system.iobus.trans_dist::ReadResp            16322168                       # Transaction distribution
system.iobus.trans_dist::WriteReq                8176                       # Transaction distribution
system.iobus.trans_dist::WriteResp               8176                       # Transaction distribution
system.iobus.pkt_count_system.bridge.master::system.realview.uart.pio        30038                       # Packet count per connected master and slave (bytes)
system.iobus.pkt_count_system.bridge.master::system.realview.realview_io.pio         7940                       # Packet count per connected master and slave (bytes)
system.iobus.pkt_count_system.bridge.master::system.realview.timer0.pio          520                       # Packet count per connected master and slave (bytes)
system.iobus.pkt_count_system.bridge.master::system.realview.timer1.pio         1028                       # Packet count per connected master and slave (bytes)
system.iobus.pkt_count_system.bridge.master::system.realview.clcd.pio           36                       # Packet count per connected master and slave (bytes)
system.iobus.pkt_count_system.bridge.master::system.realview.kmi0.pio          124                       # Packet count per connected master and slave (bytes)
system.iobus.pkt_count_system.bridge.master::system.realview.kmi1.pio          746                       # Packet count per connected master and slave (bytes)
system.iobus.pkt_count_system.bridge.master::system.realview.cf_ctrl.pio      2342380                       # Packet count per connected master and slave (bytes)
system.iobus.pkt_count_system.bridge.master::system.realview.dmac_fake.pio           16                       # Packet count per connected master and slave (bytes)
system.iobus.pkt_count_system.bridge.master::system.realview.uart1_fake.pio           16                       # Packet count per connected master and slave (bytes)
system.iobus.pkt_count_system.bridge.master::system.realview.uart2_fake.pio           16                       # Packet count per connected master and slave (bytes)
system.iobus.pkt_count_system.bridge.master::system.realview.uart3_fake.pio           16                       # Packet count per connected master and slave (bytes)
system.iobus.pkt_count_system.bridge.master::system.realview.smc_fake.pio           16                       # Packet count per connected master and slave (bytes)
system.iobus.pkt_count_system.bridge.master::system.realview.sp810_fake.pio           20                       # Packet count per connected master and slave (bytes)
system.iobus.pkt_count_system.bridge.master::system.realview.watchdog_fake.pio           16                       # Packet count per connected master and slave (bytes)
system.iobus.pkt_count_system.bridge.master::system.realview.gpio0_fake.pio           16                       # Packet count per connected master and slave (bytes)
system.iobus.pkt_count_system.bridge.master::system.realview.gpio1_fake.pio           16                       # Packet count per connected master and slave (bytes)
system.iobus.pkt_count_system.bridge.master::system.realview.gpio2_fake.pio           16                       # Packet count per connected master and slave (bytes)
system.iobus.pkt_count_system.bridge.master::system.realview.ssp_fake.pio           16                       # Packet count per connected master and slave (bytes)
system.iobus.pkt_count_system.bridge.master::system.realview.sci_fake.pio           16                       # Packet count per connected master and slave (bytes)
system.iobus.pkt_count_system.bridge.master::system.realview.aaci_fake.pio           16                       # Packet count per connected master and slave (bytes)
system.iobus.pkt_count_system.bridge.master::system.realview.mmc_fake.pio           16                       # Packet count per connected master and slave (bytes)
system.iobus.pkt_count_system.bridge.master::system.realview.rtc.pio           16                       # Packet count per connected master and slave (bytes)
system.iobus.pkt_count_system.bridge.master::total      2383056                       # Packet count per connected master and slave (bytes)
system.iobus.pkt_count_system.realview.clcd.dma::system.iocache.cpu_side     30277632                       # Packet count per connected master and slave (bytes)
system.iobus.pkt_count_system.realview.clcd.dma::total     30277632                       # Packet count per connected master and slave (bytes)
system.iobus.pkt_count::total                32660688                       # Packet count per connected master and slave (bytes)
system.iobus.tot_pkt_size_system.bridge.master::system.realview.uart.pio        39333                       # Cumulative packet size per connected master and slave (bytes)
system.iobus.tot_pkt_size_system.bridge.master::system.realview.realview_io.pio        15880                       # Cumulative packet size per connected master and slave (bytes)
system.iobus.tot_pkt_size_system.bridge.master::system.realview.timer0.pio         1040                       # Cumulative packet size per connected master and slave (bytes)
system.iobus.tot_pkt_size_system.bridge.master::system.realview.timer1.pio         2056                       # Cumulative packet size per connected master and slave (bytes)
system.iobus.tot_pkt_size_system.bridge.master::system.realview.clcd.pio           72                       # Cumulative packet size per connected master and slave (bytes)
system.iobus.tot_pkt_size_system.bridge.master::system.realview.kmi0.pio           86                       # Cumulative packet size per connected master and slave (bytes)
system.iobus.tot_pkt_size_system.bridge.master::system.realview.kmi1.pio          397                       # Cumulative packet size per connected master and slave (bytes)
system.iobus.tot_pkt_size_system.bridge.master::system.realview.cf_ctrl.pio      2331126                       # Cumulative packet size per connected master and slave (bytes)
system.iobus.tot_pkt_size_system.bridge.master::system.realview.dmac_fake.pio           32                       # Cumulative packet size per connected master and slave (bytes)
system.iobus.tot_pkt_size_system.bridge.master::system.realview.uart1_fake.pio           32                       # Cumulative packet size per connected master and slave (bytes)
system.iobus.tot_pkt_size_system.bridge.master::system.realview.uart2_fake.pio           32                       # Cumulative packet size per connected master and slave (bytes)
system.iobus.tot_pkt_size_system.bridge.master::system.realview.uart3_fake.pio           32                       # Cumulative packet size per connected master and slave (bytes)
system.iobus.tot_pkt_size_system.bridge.master::system.realview.smc_fake.pio           32                       # Cumulative packet size per connected master and slave (bytes)
system.iobus.tot_pkt_size_system.bridge.master::system.realview.sp810_fake.pio           40                       # Cumulative packet size per connected master and slave (bytes)
system.iobus.tot_pkt_size_system.bridge.master::system.realview.watchdog_fake.pio           32                       # Cumulative packet size per connected master and slave (bytes)
system.iobus.tot_pkt_size_system.bridge.master::system.realview.gpio0_fake.pio           32                       # Cumulative packet size per connected master and slave (bytes)
system.iobus.tot_pkt_size_system.bridge.master::system.realview.gpio1_fake.pio           32                       # Cumulative packet size per connected master and slave (bytes)
system.iobus.tot_pkt_size_system.bridge.master::system.realview.gpio2_fake.pio           32                       # Cumulative packet size per connected master and slave (bytes)
system.iobus.tot_pkt_size_system.bridge.master::system.realview.ssp_fake.pio           32                       # Cumulative packet size per connected master and slave (bytes)
system.iobus.tot_pkt_size_system.bridge.master::system.realview.sci_fake.pio           32                       # Cumulative packet size per connected master and slave (bytes)
system.iobus.tot_pkt_size_system.bridge.master::system.realview.aaci_fake.pio           32                       # Cumulative packet size per connected master and slave (bytes)
system.iobus.tot_pkt_size_system.bridge.master::system.realview.mmc_fake.pio           32                       # Cumulative packet size per connected master and slave (bytes)
system.iobus.tot_pkt_size_system.bridge.master::system.realview.rtc.pio           32                       # Cumulative packet size per connected master and slave (bytes)
system.iobus.tot_pkt_size_system.bridge.master::total      2390478                       # Cumulative packet size per connected master and slave (bytes)
system.iobus.tot_pkt_size_system.realview.clcd.dma::system.iocache.cpu_side    121110528                       # Cumulative packet size per connected master and slave (bytes)
system.iobus.tot_pkt_size_system.realview.clcd.dma::total    121110528                       # Cumulative packet size per connected master and slave (bytes)
system.iobus.tot_pkt_size::total            123501006                       # Cumulative packet size per connected master and slave (bytes)
system.iobus.data_through_bus               123501006                       # Total data (bytes)
system.iobus.reqLayer0.occupancy             21111000                       # Layer occupancy (ticks)
system.iobus.reqLayer0.utilization                0.0                       # Layer utilization (%)
system.iobus.reqLayer1.occupancy              3975000                       # Layer occupancy (ticks)
system.iobus.reqLayer1.utilization                0.0                       # Layer utilization (%)
system.iobus.reqLayer2.occupancy               520000                       # Layer occupancy (ticks)
system.iobus.reqLayer2.utilization                0.0                       # Layer utilization (%)
system.iobus.reqLayer3.occupancy               520000                       # Layer occupancy (ticks)
system.iobus.reqLayer3.utilization                0.0                       # Layer utilization (%)
system.iobus.reqLayer4.occupancy                27000                       # Layer occupancy (ticks)
system.iobus.reqLayer4.utilization                0.0                       # Layer utilization (%)
system.iobus.reqLayer5.occupancy                74000                       # Layer occupancy (ticks)
system.iobus.reqLayer5.utilization                0.0                       # Layer utilization (%)
system.iobus.reqLayer6.occupancy               445000                       # Layer occupancy (ticks)
system.iobus.reqLayer6.utilization                0.0                       # Layer utilization (%)
system.iobus.reqLayer7.occupancy           1172909000                       # Layer occupancy (ticks)
system.iobus.reqLayer7.utilization                0.0                       # Layer utilization (%)
system.iobus.reqLayer9.occupancy                 8000                       # Layer occupancy (ticks)
system.iobus.reqLayer9.utilization                0.0                       # Layer utilization (%)
system.iobus.reqLayer10.occupancy                8000                       # Layer occupancy (ticks)
system.iobus.reqLayer10.utilization               0.0                       # Layer utilization (%)
system.iobus.reqLayer11.occupancy                8000                       # Layer occupancy (ticks)
system.iobus.reqLayer11.utilization               0.0                       # Layer utilization (%)
system.iobus.reqLayer12.occupancy                8000                       # Layer occupancy (ticks)
system.iobus.reqLayer12.utilization               0.0                       # Layer utilization (%)
system.iobus.reqLayer13.occupancy                8000                       # Layer occupancy (ticks)
system.iobus.reqLayer13.utilization               0.0                       # Layer utilization (%)
system.iobus.reqLayer14.occupancy               11000                       # Layer occupancy (ticks)
system.iobus.reqLayer14.utilization               0.0                       # Layer utilization (%)
system.iobus.reqLayer15.occupancy                8000                       # Layer occupancy (ticks)
system.iobus.reqLayer15.utilization               0.0                       # Layer utilization (%)
system.iobus.reqLayer16.occupancy                8000                       # Layer occupancy (ticks)
system.iobus.reqLayer16.utilization               0.0                       # Layer utilization (%)
system.iobus.reqLayer17.occupancy                8000                       # Layer occupancy (ticks)
system.iobus.reqLayer17.utilization               0.0                       # Layer utilization (%)
system.iobus.reqLayer18.occupancy                8000                       # Layer occupancy (ticks)
system.iobus.reqLayer18.utilization               0.0                       # Layer utilization (%)
system.iobus.reqLayer19.occupancy                8000                       # Layer occupancy (ticks)
system.iobus.reqLayer19.utilization               0.0                       # Layer utilization (%)
system.iobus.reqLayer20.occupancy                8000                       # Layer occupancy (ticks)
system.iobus.reqLayer20.utilization               0.0                       # Layer utilization (%)
system.iobus.reqLayer21.occupancy                8000                       # Layer occupancy (ticks)
system.iobus.reqLayer21.utilization               0.0                       # Layer utilization (%)
system.iobus.reqLayer22.occupancy                8000                       # Layer occupancy (ticks)
system.iobus.reqLayer22.utilization               0.0                       # Layer utilization (%)
system.iobus.reqLayer23.occupancy                8000                       # Layer occupancy (ticks)
system.iobus.reqLayer23.utilization               0.0                       # Layer utilization (%)
system.iobus.reqLayer25.occupancy         15138816000                       # Layer occupancy (ticks)
system.iobus.reqLayer25.utilization               0.6                       # Layer utilization (%)
system.iobus.respLayer0.occupancy          2374880000                       # Layer occupancy (ticks)
system.iobus.respLayer0.utilization               0.1                       # Layer utilization (%)
system.iobus.respLayer1.occupancy         38173420540                       # Layer occupancy (ticks)
system.iobus.respLayer1.utilization               1.5                       # Layer utilization (%)
system.cpu_clk_domain.clock                       500                       # Clock period in ticks
system.cpu.branchPred.lookups                13201290                       # Number of BP lookups
system.cpu.branchPred.condPredicted           9675974                       # Number of conditional branches predicted
system.cpu.branchPred.condIncorrect            704139                       # Number of conditional branches incorrect
system.cpu.branchPred.BTBLookups              8377301                       # Number of BTB lookups
system.cpu.branchPred.BTBHits                 6024680                       # Number of BTB hits
system.cpu.branchPred.BTBCorrect                    0                       # Number of correct BTB predictions (this stat may not work properly.
system.cpu.branchPred.BTBHitPct             71.916719                       # BTB Hit Percentage
system.cpu.branchPred.usedRAS                 1435837                       # Number of times the RAS was used to get a target.
system.cpu.branchPred.RASInCorrect              30801                       # Number of incorrect RAS predictions.
system.cpu.checker.dstage2_mmu.stage2_tlb.inst_hits            0                       # ITB inst hits
system.cpu.checker.dstage2_mmu.stage2_tlb.inst_misses            0                       # ITB inst misses
system.cpu.checker.dstage2_mmu.stage2_tlb.read_hits            0                       # DTB read hits
system.cpu.checker.dstage2_mmu.stage2_tlb.read_misses            0                       # DTB read misses
system.cpu.checker.dstage2_mmu.stage2_tlb.write_hits            0                       # DTB write hits
system.cpu.checker.dstage2_mmu.stage2_tlb.write_misses            0                       # DTB write misses
system.cpu.checker.dstage2_mmu.stage2_tlb.flush_tlb            0                       # Number of times complete TLB was flushed
system.cpu.checker.dstage2_mmu.stage2_tlb.flush_tlb_mva            0                       # Number of times TLB was flushed by MVA
system.cpu.checker.dstage2_mmu.stage2_tlb.flush_tlb_mva_asid            0                       # Number of times TLB was flushed by MVA & ASID
system.cpu.checker.dstage2_mmu.stage2_tlb.flush_tlb_asid            0                       # Number of times TLB was flushed by ASID
system.cpu.checker.dstage2_mmu.stage2_tlb.flush_entries            0                       # Number of entries that have been flushed from TLB
system.cpu.checker.dstage2_mmu.stage2_tlb.align_faults            0                       # Number of TLB faults due to alignment restrictions
system.cpu.checker.dstage2_mmu.stage2_tlb.prefetch_faults            0                       # Number of TLB faults due to prefetch
system.cpu.checker.dstage2_mmu.stage2_tlb.domain_faults            0                       # Number of TLB faults due to domain restrictions
system.cpu.checker.dstage2_mmu.stage2_tlb.perms_faults            0                       # Number of TLB faults due to permissions restrictions
system.cpu.checker.dstage2_mmu.stage2_tlb.read_accesses            0                       # DTB read accesses
system.cpu.checker.dstage2_mmu.stage2_tlb.write_accesses            0                       # DTB write accesses
system.cpu.checker.dstage2_mmu.stage2_tlb.inst_accesses            0                       # ITB inst accesses
system.cpu.checker.dstage2_mmu.stage2_tlb.hits            0                       # DTB hits
system.cpu.checker.dstage2_mmu.stage2_tlb.misses            0                       # DTB misses
system.cpu.checker.dstage2_mmu.stage2_tlb.accesses            0                       # DTB accesses
system.cpu.checker.dtb.inst_hits                    0                       # ITB inst hits
system.cpu.checker.dtb.inst_misses                  0                       # ITB inst misses
system.cpu.checker.dtb.read_hits             13156743                       # DTB read hits
system.cpu.checker.dtb.read_misses               7321                       # DTB read misses
system.cpu.checker.dtb.write_hits            11227340                       # DTB write hits
system.cpu.checker.dtb.write_misses              2193                       # DTB write misses
system.cpu.checker.dtb.flush_tlb                    4                       # Number of times complete TLB was flushed
system.cpu.checker.dtb.flush_tlb_mva                0                       # Number of times TLB was flushed by MVA
system.cpu.checker.dtb.flush_tlb_mva_asid         2878                       # Number of times TLB was flushed by MVA & ASID
system.cpu.checker.dtb.flush_tlb_asid             126                       # Number of times TLB was flushed by ASID
system.cpu.checker.dtb.flush_entries             3404                       # Number of entries that have been flushed from TLB
system.cpu.checker.dtb.align_faults                 0                       # Number of TLB faults due to alignment restrictions
system.cpu.checker.dtb.prefetch_faults            180                       # Number of TLB faults due to prefetch
system.cpu.checker.dtb.domain_faults                0                       # Number of TLB faults due to domain restrictions
system.cpu.checker.dtb.perms_faults               452                       # Number of TLB faults due to permissions restrictions
system.cpu.checker.dtb.read_accesses         13164064                       # DTB read accesses
system.cpu.checker.dtb.write_accesses        11229533                       # DTB write accesses
system.cpu.checker.dtb.inst_accesses                0                       # ITB inst accesses
system.cpu.checker.dtb.hits                  24384083                       # DTB hits
system.cpu.checker.dtb.misses                    9514                       # DTB misses
system.cpu.checker.dtb.accesses              24393597                       # DTB accesses
system.cpu.checker.istage2_mmu.stage2_tlb.inst_hits            0                       # ITB inst hits
system.cpu.checker.istage2_mmu.stage2_tlb.inst_misses            0                       # ITB inst misses
system.cpu.checker.istage2_mmu.stage2_tlb.read_hits            0                       # DTB read hits
system.cpu.checker.istage2_mmu.stage2_tlb.read_misses            0                       # DTB read misses
system.cpu.checker.istage2_mmu.stage2_tlb.write_hits            0                       # DTB write hits
system.cpu.checker.istage2_mmu.stage2_tlb.write_misses            0                       # DTB write misses
system.cpu.checker.istage2_mmu.stage2_tlb.flush_tlb            0                       # Number of times complete TLB was flushed
system.cpu.checker.istage2_mmu.stage2_tlb.flush_tlb_mva            0                       # Number of times TLB was flushed by MVA
system.cpu.checker.istage2_mmu.stage2_tlb.flush_tlb_mva_asid            0                       # Number of times TLB was flushed by MVA & ASID
system.cpu.checker.istage2_mmu.stage2_tlb.flush_tlb_asid            0                       # Number of times TLB was flushed by ASID
system.cpu.checker.istage2_mmu.stage2_tlb.flush_entries            0                       # Number of entries that have been flushed from TLB
system.cpu.checker.istage2_mmu.stage2_tlb.align_faults            0                       # Number of TLB faults due to alignment restrictions
system.cpu.checker.istage2_mmu.stage2_tlb.prefetch_faults            0                       # Number of TLB faults due to prefetch
system.cpu.checker.istage2_mmu.stage2_tlb.domain_faults            0                       # Number of TLB faults due to domain restrictions
system.cpu.checker.istage2_mmu.stage2_tlb.perms_faults            0                       # Number of TLB faults due to permissions restrictions
system.cpu.checker.istage2_mmu.stage2_tlb.read_accesses            0                       # DTB read accesses
system.cpu.checker.istage2_mmu.stage2_tlb.write_accesses            0                       # DTB write accesses
system.cpu.checker.istage2_mmu.stage2_tlb.inst_accesses            0                       # ITB inst accesses
system.cpu.checker.istage2_mmu.stage2_tlb.hits            0                       # DTB hits
system.cpu.checker.istage2_mmu.stage2_tlb.misses            0                       # DTB misses
system.cpu.checker.istage2_mmu.stage2_tlb.accesses            0                       # DTB accesses
system.cpu.checker.itb.inst_hits             61486079                       # ITB inst hits
system.cpu.checker.itb.inst_misses               4473                       # ITB inst misses
system.cpu.checker.itb.read_hits                    0                       # DTB read hits
system.cpu.checker.itb.read_misses                  0                       # DTB read misses
system.cpu.checker.itb.write_hits                   0                       # DTB write hits
system.cpu.checker.itb.write_misses                 0                       # DTB write misses
system.cpu.checker.itb.flush_tlb                    4                       # Number of times complete TLB was flushed
system.cpu.checker.itb.flush_tlb_mva                0                       # Number of times TLB was flushed by MVA
system.cpu.checker.itb.flush_tlb_mva_asid         2878                       # Number of times TLB was flushed by MVA & ASID
system.cpu.checker.itb.flush_tlb_asid             126                       # Number of times TLB was flushed by ASID
system.cpu.checker.itb.flush_entries             2372                       # Number of entries that have been flushed from TLB
system.cpu.checker.itb.align_faults                 0                       # Number of TLB faults due to alignment restrictions
system.cpu.checker.itb.prefetch_faults              0                       # Number of TLB faults due to prefetch
system.cpu.checker.itb.domain_faults                0                       # Number of TLB faults due to domain restrictions
system.cpu.checker.itb.perms_faults                 0                       # Number of TLB faults due to permissions restrictions
system.cpu.checker.itb.read_accesses                0                       # DTB read accesses
system.cpu.checker.itb.write_accesses               0                       # DTB write accesses
system.cpu.checker.itb.inst_accesses         61490552                       # ITB inst accesses
system.cpu.checker.itb.hits                  61486079                       # DTB hits
system.cpu.checker.itb.misses                    4473                       # DTB misses
system.cpu.checker.itb.accesses              61490552                       # DTB accesses
system.cpu.checker.numCycles                 72947431                       # number of cpu cycles simulated
system.cpu.checker.numWorkItemsStarted              0                       # number of work items this cpu started
system.cpu.checker.numWorkItemsCompleted            0                       # number of work items this cpu completed
system.cpu.dstage2_mmu.stage2_tlb.inst_hits            0                       # ITB inst hits
system.cpu.dstage2_mmu.stage2_tlb.inst_misses            0                       # ITB inst misses
system.cpu.dstage2_mmu.stage2_tlb.read_hits            0                       # DTB read hits
system.cpu.dstage2_mmu.stage2_tlb.read_misses            0                       # DTB read misses
system.cpu.dstage2_mmu.stage2_tlb.write_hits            0                       # DTB write hits
system.cpu.dstage2_mmu.stage2_tlb.write_misses            0                       # DTB write misses
system.cpu.dstage2_mmu.stage2_tlb.flush_tlb            0                       # Number of times complete TLB was flushed
system.cpu.dstage2_mmu.stage2_tlb.flush_tlb_mva            0                       # Number of times TLB was flushed by MVA
system.cpu.dstage2_mmu.stage2_tlb.flush_tlb_mva_asid            0                       # Number of times TLB was flushed by MVA & ASID
system.cpu.dstage2_mmu.stage2_tlb.flush_tlb_asid            0                       # Number of times TLB was flushed by ASID
system.cpu.dstage2_mmu.stage2_tlb.flush_entries            0                       # Number of entries that have been flushed from TLB
system.cpu.dstage2_mmu.stage2_tlb.align_faults            0                       # Number of TLB faults due to alignment restrictions
system.cpu.dstage2_mmu.stage2_tlb.prefetch_faults            0                       # Number of TLB faults due to prefetch
system.cpu.dstage2_mmu.stage2_tlb.domain_faults            0                       # Number of TLB faults due to domain restrictions
system.cpu.dstage2_mmu.stage2_tlb.perms_faults            0                       # Number of TLB faults due to permissions restrictions
system.cpu.dstage2_mmu.stage2_tlb.read_accesses            0                       # DTB read accesses
system.cpu.dstage2_mmu.stage2_tlb.write_accesses            0                       # DTB write accesses
system.cpu.dstage2_mmu.stage2_tlb.inst_accesses            0                       # ITB inst accesses
system.cpu.dstage2_mmu.stage2_tlb.hits              0                       # DTB hits
system.cpu.dstage2_mmu.stage2_tlb.misses            0                       # DTB misses
system.cpu.dstage2_mmu.stage2_tlb.accesses            0                       # DTB accesses
system.cpu.dtb.inst_hits                            0                       # ITB inst hits
system.cpu.dtb.inst_misses                          0                       # ITB inst misses
system.cpu.dtb.read_hits                     31642294                       # DTB read hits
system.cpu.dtb.read_misses                      39524                       # DTB read misses
system.cpu.dtb.write_hits                    11381361                       # DTB write hits
system.cpu.dtb.write_misses                     10135                       # DTB write misses
system.cpu.dtb.flush_tlb                            4                       # Number of times complete TLB was flushed
system.cpu.dtb.flush_tlb_mva                        0                       # Number of times TLB was flushed by MVA
system.cpu.dtb.flush_tlb_mva_asid                2878                       # Number of times TLB was flushed by MVA & ASID
system.cpu.dtb.flush_tlb_asid                     126                       # Number of times TLB was flushed by ASID
system.cpu.dtb.flush_entries                     3437                       # Number of entries that have been flushed from TLB
system.cpu.dtb.align_faults                       348                       # Number of TLB faults due to alignment restrictions
system.cpu.dtb.prefetch_faults                    314                       # Number of TLB faults due to prefetch
system.cpu.dtb.domain_faults                        0                       # Number of TLB faults due to domain restrictions
system.cpu.dtb.perms_faults                      1342                       # Number of TLB faults due to permissions restrictions
system.cpu.dtb.read_accesses                 31681818                       # DTB read accesses
system.cpu.dtb.write_accesses                11391496                       # DTB write accesses
system.cpu.dtb.inst_accesses                        0                       # ITB inst accesses
system.cpu.dtb.hits                          43023655                       # DTB hits
system.cpu.dtb.misses                           49659                       # DTB misses
system.cpu.dtb.accesses                      43073314                       # DTB accesses
system.cpu.istage2_mmu.stage2_tlb.inst_hits            0                       # ITB inst hits
system.cpu.istage2_mmu.stage2_tlb.inst_misses            0                       # ITB inst misses
system.cpu.istage2_mmu.stage2_tlb.read_hits            0                       # DTB read hits
system.cpu.istage2_mmu.stage2_tlb.read_misses            0                       # DTB read misses
system.cpu.istage2_mmu.stage2_tlb.write_hits            0                       # DTB write hits
system.cpu.istage2_mmu.stage2_tlb.write_misses            0                       # DTB write misses
system.cpu.istage2_mmu.stage2_tlb.flush_tlb            0                       # Number of times complete TLB was flushed
system.cpu.istage2_mmu.stage2_tlb.flush_tlb_mva            0                       # Number of times TLB was flushed by MVA
system.cpu.istage2_mmu.stage2_tlb.flush_tlb_mva_asid            0                       # Number of times TLB was flushed by MVA & ASID
system.cpu.istage2_mmu.stage2_tlb.flush_tlb_asid            0                       # Number of times TLB was flushed by ASID
system.cpu.istage2_mmu.stage2_tlb.flush_entries            0                       # Number of entries that have been flushed from TLB
system.cpu.istage2_mmu.stage2_tlb.align_faults            0                       # Number of TLB faults due to alignment restrictions
system.cpu.istage2_mmu.stage2_tlb.prefetch_faults            0                       # Number of TLB faults due to prefetch
system.cpu.istage2_mmu.stage2_tlb.domain_faults            0                       # Number of TLB faults due to domain restrictions
system.cpu.istage2_mmu.stage2_tlb.perms_faults            0                       # Number of TLB faults due to permissions restrictions
system.cpu.istage2_mmu.stage2_tlb.read_accesses            0                       # DTB read accesses
system.cpu.istage2_mmu.stage2_tlb.write_accesses            0                       # DTB write accesses
system.cpu.istage2_mmu.stage2_tlb.inst_accesses            0                       # ITB inst accesses
system.cpu.istage2_mmu.stage2_tlb.hits              0                       # DTB hits
system.cpu.istage2_mmu.stage2_tlb.misses            0                       # DTB misses
system.cpu.istage2_mmu.stage2_tlb.accesses            0                       # DTB accesses
system.cpu.itb.inst_hits                     24159481                       # ITB inst hits
system.cpu.itb.inst_misses                      10516                       # ITB inst misses
system.cpu.itb.read_hits                            0                       # DTB read hits
system.cpu.itb.read_misses                          0                       # DTB read misses
system.cpu.itb.write_hits                           0                       # DTB write hits
system.cpu.itb.write_misses                         0                       # DTB write misses
system.cpu.itb.flush_tlb                            4                       # Number of times complete TLB was flushed
system.cpu.itb.flush_tlb_mva                        0                       # Number of times TLB was flushed by MVA
system.cpu.itb.flush_tlb_mva_asid                2878                       # Number of times TLB was flushed by MVA & ASID
system.cpu.itb.flush_tlb_asid                     126                       # Number of times TLB was flushed by ASID
system.cpu.itb.flush_entries                     2464                       # Number of entries that have been flushed from TLB
system.cpu.itb.align_faults                         0                       # Number of TLB faults due to alignment restrictions
system.cpu.itb.prefetch_faults                      0                       # Number of TLB faults due to prefetch
system.cpu.itb.domain_faults                        0                       # Number of TLB faults due to domain restrictions
system.cpu.itb.perms_faults                      4176                       # Number of TLB faults due to permissions restrictions
system.cpu.itb.read_accesses                        0                       # DTB read accesses
system.cpu.itb.write_accesses                       0                       # DTB write accesses
system.cpu.itb.inst_accesses                 24169997                       # ITB inst accesses
system.cpu.itb.hits                          24159481                       # DTB hits
system.cpu.itb.misses                           10516                       # DTB misses
system.cpu.itb.accesses                      24169997                       # DTB accesses
system.cpu.numCycles                        499350041                       # number of cpu cycles simulated
system.cpu.numWorkItemsStarted                      0                       # number of work items this cpu started
system.cpu.numWorkItemsCompleted                    0                       # number of work items this cpu completed
system.cpu.fetch.icacheStallCycles           43030629                       # Number of cycles fetch is stalled on an Icache miss
system.cpu.fetch.Insts                       74131140                       # Number of instructions fetch has processed
system.cpu.fetch.Branches                    13201290                       # Number of branches that fetch encountered
system.cpu.fetch.predictedBranches            7460517                       # Number of branches that fetch has predicted taken
system.cpu.fetch.Cycles                     448266810                       # Number of cycles fetch has run and was not squashing or blocked
system.cpu.fetch.SquashCycles                 1858598                       # Number of cycles fetch has spent squashing
system.cpu.fetch.TlbCycles                     133224                       # Number of cycles fetch has spent waiting for tlb
system.cpu.fetch.MiscStallCycles                12550                       # Number of cycles fetch has spent waiting on interrupts, or bad addresses, or out of MSHRs
system.cpu.fetch.PendingTrapStallCycles        145871                       # Number of stall cycles due to pending traps
system.cpu.fetch.PendingQuiesceStallCycles      3032125                       # Number of stall cycles due to pending quiesce instructions
system.cpu.fetch.IcacheWaitRetryStallCycles           42                       # Number of stall cycles due to full MSHR
system.cpu.fetch.CacheLines                  24158180                       # Number of cache lines fetched
system.cpu.fetch.IcacheSquashes                404816                       # Number of outstanding Icache misses that were squashed
system.cpu.fetch.ItlbSquashes                    4527                       # Number of outstanding ITLB misses that were squashed
system.cpu.fetch.rateDist::samples          495550550                       # Number of instructions fetched each cycle (Total)
system.cpu.fetch.rateDist::mean              0.179793                       # Number of instructions fetched each cycle (Total)
system.cpu.fetch.rateDist::stdev             0.652924                       # Number of instructions fetched each cycle (Total)
system.cpu.fetch.rateDist::underflows               0      0.00%      0.00% # Number of instructions fetched each cycle (Total)
system.cpu.fetch.rateDist::0                454644690     91.75%     91.75% # Number of instructions fetched each cycle (Total)
system.cpu.fetch.rateDist::1                 13614673      2.75%     94.49% # Number of instructions fetched each cycle (Total)
system.cpu.fetch.rateDist::2                  6391682      1.29%     95.78% # Number of instructions fetched each cycle (Total)
system.cpu.fetch.rateDist::3                 20899505      4.22%    100.00% # Number of instructions fetched each cycle (Total)
system.cpu.fetch.rateDist::overflows                0      0.00%    100.00% # Number of instructions fetched each cycle (Total)
system.cpu.fetch.rateDist::min_value                0                       # Number of instructions fetched each cycle (Total)
system.cpu.fetch.rateDist::max_value                3                       # Number of instructions fetched each cycle (Total)
system.cpu.fetch.rateDist::total            495550550                       # Number of instructions fetched each cycle (Total)
system.cpu.fetch.branchRate                  0.026437                       # Number of branch fetches per cycle
system.cpu.fetch.rate                        0.148455                       # Number of inst fetches per cycle
system.cpu.decode.IdleCycles                 35577628                       # Number of cycles decode is idle
system.cpu.decode.BlockedCycles             424964763                       # Number of cycles decode is blocked
system.cpu.decode.RunCycles                  30286365                       # Number of cycles decode is running
system.cpu.decode.UnblockCycles               4037656                       # Number of cycles decode is unblocking
system.cpu.decode.SquashCycles                 684138                       # Number of cycles decode is squashing
system.cpu.decode.BranchResolved              1691487                       # Number of times decode resolved a branch
[...]
system.cpu.dcache.StoreCondReq_miss_latency::total        26000                       # number of StoreCondReq miss cycles
system.cpu.dcache.demand_miss_latency::cpu.data 133232870230                       # number of demand (read+write) miss cycles
system.cpu.dcache.demand_miss_latency::total 133232870230                       # number of demand (read+write) miss cycles
system.cpu.dcache.overall_miss_latency::cpu.data 133232870230                       # number of overall miss cycles
system.cpu.dcache.overall_miss_latency::total 133232870230                       # number of overall miss cycles
system.cpu.dcache.ReadReq_accesses::cpu.data     11884501                       # number of ReadReq accesses(hits+misses)
system.cpu.dcache.ReadReq_accesses::total     11884501                       # number of ReadReq accesses(hits+misses)
system.cpu.dcache.WriteReq_accesses::cpu.data     10221942                       # number of WriteReq accesses(hits+misses)
system.cpu.dcache.WriteReq_accesses::total     10221942                       # number of WriteReq accesses(hits+misses)
system.cpu.dcache.SoftPFReq_accesses::cpu.data       187324                       # number of SoftPFReq accesses(hits+misses)
system.cpu.dcache.SoftPFReq_accesses::total       187324                       # number of SoftPFReq accesses(hits+misses)
system.cpu.dcache.LoadLockedReq_accesses::cpu.data       249432                       # number of LoadLockedReq accesses(hits+misses)
system.cpu.dcache.LoadLockedReq_accesses::total       249432                       # number of LoadLockedReq accesses(hits+misses)
system.cpu.dcache.StoreCondReq_accesses::cpu.data       247596                       # number of StoreCondReq accesses(hits+misses)
system.cpu.dcache.StoreCondReq_accesses::total       247596                       # number of StoreCondReq accesses(hits+misses)
system.cpu.dcache.demand_accesses::cpu.data     22106443                       # number of demand (read+write) accesses
system.cpu.dcache.demand_accesses::total     22106443                       # number of demand (read+write) accesses
system.cpu.dcache.overall_accesses::cpu.data     22293767                       # number of overall (read+write) accesses
system.cpu.dcache.overall_accesses::total     22293767                       # number of overall (read+write) accesses
system.cpu.dcache.ReadReq_miss_rate::cpu.data     0.048236                       # miss rate for ReadReq accesses
system.cpu.dcache.ReadReq_miss_rate::total     0.048236                       # miss rate for ReadReq accesses
system.cpu.dcache.WriteReq_miss_rate::cpu.data     0.294708                       # miss rate for WriteReq accesses
system.cpu.dcache.WriteReq_miss_rate::total     0.294708                       # miss rate for WriteReq accesses
system.cpu.dcache.SoftPFReq_miss_rate::cpu.data     0.675306                       # miss rate for SoftPFReq accesses
system.cpu.dcache.SoftPFReq_miss_rate::total     0.675306                       # miss rate for SoftPFReq accesses
system.cpu.dcache.LoadLockedReq_miss_rate::cpu.data     0.052070                       # miss rate for LoadLockedReq accesses
system.cpu.dcache.LoadLockedReq_miss_rate::total     0.052070                       # miss rate for LoadLockedReq accesses
system.cpu.dcache.StoreCondReq_miss_rate::cpu.data     0.000008                       # miss rate for StoreCondReq accesses
system.cpu.dcache.StoreCondReq_miss_rate::total     0.000008                       # miss rate for StoreCondReq accesses
system.cpu.dcache.demand_miss_rate::cpu.data     0.162204                       # miss rate for demand accesses
system.cpu.dcache.demand_miss_rate::total     0.162204                       # miss rate for demand accesses
system.cpu.dcache.overall_miss_rate::cpu.data     0.166515                       # miss rate for overall accesses
system.cpu.dcache.overall_miss_rate::total     0.166515                       # miss rate for overall accesses
system.cpu.dcache.ReadReq_avg_miss_latency::cpu.data 12588.259390                       # average ReadReq miss latency
system.cpu.dcache.ReadReq_avg_miss_latency::total 12588.259390                       # average ReadReq miss latency
system.cpu.dcache.WriteReq_avg_miss_latency::cpu.data 41831.429499                       # average WriteReq miss latency
system.cpu.dcache.WriteReq_avg_miss_latency::total 41831.429499                       # average WriteReq miss latency
system.cpu.dcache.LoadLockedReq_avg_miss_latency::cpu.data 13719.240838                       # average LoadLockedReq miss latency
system.cpu.dcache.LoadLockedReq_avg_miss_latency::total 13719.240838                       # average LoadLockedReq miss latency
system.cpu.dcache.StoreCondReq_avg_miss_latency::cpu.data        13000                       # average StoreCondReq miss latency
system.cpu.dcache.StoreCondReq_avg_miss_latency::total        13000                       # average StoreCondReq miss latency
system.cpu.dcache.demand_avg_miss_latency::cpu.data 37156.259084                       # average overall miss latency
system.cpu.dcache.demand_avg_miss_latency::total 37156.259084                       # average overall miss latency
system.cpu.dcache.overall_avg_miss_latency::cpu.data 35890.097324                       # average overall miss latency
system.cpu.dcache.overall_avg_miss_latency::total 35890.097324                       # average overall miss latency
system.cpu.dcache.blocked_cycles::no_mshrs        18826                       # number of cycles access was blocked
system.cpu.dcache.blocked_cycles::no_targets            0                       # number of cycles access was blocked
system.cpu.dcache.blocked::no_mshrs              1227                       # number of cycles access was blocked
system.cpu.dcache.blocked::no_targets               0                       # number of cycles access was blocked
system.cpu.dcache.avg_blocked_cycles::no_mshrs    15.343113                       # average number of cycles each access was blocked
system.cpu.dcache.avg_blocked_cycles::no_targets          nan                       # average number of cycles each access was blocked
system.cpu.dcache.fast_writes                       0                       # number of fast writes performed
system.cpu.dcache.cache_copies                      0                       # number of cache copies performed
system.cpu.dcache.writebacks::writebacks       599976                       # number of writebacks
system.cpu.dcache.writebacks::total            599976                       # number of writebacks
system.cpu.dcache.ReadReq_mshr_hits::cpu.data       271755                       # number of ReadReq MSHR hits
system.cpu.dcache.ReadReq_mshr_hits::total       271755                       # number of ReadReq MSHR hits
system.cpu.dcache.WriteReq_mshr_hits::cpu.data      2763119                       # number of WriteReq MSHR hits
system.cpu.dcache.WriteReq_mshr_hits::total      2763119                       # number of WriteReq MSHR hits
system.cpu.dcache.LoadLockedReq_mshr_hits::cpu.data         1233                       # number of LoadLockedReq MSHR hits
system.cpu.dcache.LoadLockedReq_mshr_hits::total         1233                       # number of LoadLockedReq MSHR hits
system.cpu.dcache.demand_mshr_hits::cpu.data      3034874                       # number of demand (read+write) MSHR hits
system.cpu.dcache.demand_mshr_hits::total      3034874                       # number of demand (read+write) MSHR hits
system.cpu.dcache.overall_mshr_hits::cpu.data      3034874                       # number of overall MSHR hits
system.cpu.dcache.overall_mshr_hits::total      3034874                       # number of overall MSHR hits
system.cpu.dcache.ReadReq_mshr_misses::cpu.data       301506                       # number of ReadReq MSHR misses
system.cpu.dcache.ReadReq_mshr_misses::total       301506                       # number of ReadReq MSHR misses
system.cpu.dcache.WriteReq_mshr_misses::cpu.data       249365                       # number of WriteReq MSHR misses
system.cpu.dcache.WriteReq_mshr_misses::total       249365                       # number of WriteReq MSHR misses
system.cpu.dcache.SoftPFReq_mshr_misses::cpu.data        74145                       # number of SoftPFReq MSHR misses
system.cpu.dcache.SoftPFReq_mshr_misses::total        74145                       # number of SoftPFReq MSHR misses
system.cpu.dcache.LoadLockedReq_mshr_misses::cpu.data        11755                       # number of LoadLockedReq MSHR misses
system.cpu.dcache.LoadLockedReq_mshr_misses::total        11755                       # number of LoadLockedReq MSHR misses
system.cpu.dcache.StoreCondReq_mshr_misses::cpu.data            2                       # number of StoreCondReq MSHR misses
system.cpu.dcache.StoreCondReq_mshr_misses::total            2                       # number of StoreCondReq MSHR misses
system.cpu.dcache.demand_mshr_misses::cpu.data       550871                       # number of demand (read+write) MSHR misses
system.cpu.dcache.demand_mshr_misses::total       550871                       # number of demand (read+write) MSHR misses
system.cpu.dcache.overall_mshr_misses::cpu.data       625016                       # number of overall MSHR misses
system.cpu.dcache.overall_mshr_misses::total       625016                       # number of overall MSHR misses
system.cpu.dcache.ReadReq_mshr_miss_latency::cpu.data   3569781578                       # number of ReadReq MSHR miss cycles
system.cpu.dcache.ReadReq_mshr_miss_latency::total   3569781578                       # number of ReadReq MSHR miss cycles
system.cpu.dcache.WriteReq_mshr_miss_latency::cpu.data  10783879319                       # number of WriteReq MSHR miss cycles
system.cpu.dcache.WriteReq_mshr_miss_latency::total  10783879319                       # number of WriteReq MSHR miss cycles
system.cpu.dcache.SoftPFReq_mshr_miss_latency::cpu.data   1231283000                       # number of SoftPFReq MSHR miss cycles
system.cpu.dcache.SoftPFReq_mshr_miss_latency::total   1231283000                       # number of SoftPFReq MSHR miss cycles
system.cpu.dcache.LoadLockedReq_mshr_miss_latency::cpu.data    140188500                       # number of LoadLockedReq MSHR miss cycles
system.cpu.dcache.LoadLockedReq_mshr_miss_latency::total    140188500                       # number of LoadLockedReq MSHR miss cycles
system.cpu.dcache.StoreCondReq_mshr_miss_latency::cpu.data        22000                       # number of StoreCondReq MSHR miss cycles
system.cpu.dcache.StoreCondReq_mshr_miss_latency::total        22000                       # number of StoreCondReq MSHR miss cycles
system.cpu.dcache.demand_mshr_miss_latency::cpu.data  14353660897                       # number of demand (read+write) MSHR miss cycles
system.cpu.dcache.demand_mshr_miss_latency::total  14353660897                       # number of demand (read+write) MSHR miss cycles
system.cpu.dcache.overall_mshr_miss_latency::cpu.data  15584943897                       # number of overall MSHR miss cycles
system.cpu.dcache.overall_mshr_miss_latency::total  15584943897                       # number of overall MSHR miss cycles
system.cpu.dcache.ReadReq_mshr_uncacheable_latency::cpu.data 182408022250                       # number of ReadReq MSHR uncacheable cycles
system.cpu.dcache.ReadReq_mshr_uncacheable_latency::total 182408022250                       # number of ReadReq MSHR uncacheable cycles
system.cpu.dcache.WriteReq_mshr_uncacheable_latency::cpu.data  26599942575                       # number of WriteReq MSHR uncacheable cycles
system.cpu.dcache.WriteReq_mshr_uncacheable_latency::total  26599942575                       # number of WriteReq MSHR uncacheable cycles
system.cpu.dcache.overall_mshr_uncacheable_latency::cpu.data 209007964825                       # number of overall MSHR uncacheable cycles
system.cpu.dcache.overall_mshr_uncacheable_latency::total 209007964825                       # number of overall MSHR uncacheable cycles
system.cpu.dcache.ReadReq_mshr_miss_rate::cpu.data     0.025370                       # mshr miss rate for ReadReq accesses
system.cpu.dcache.ReadReq_mshr_miss_rate::total     0.025370                       # mshr miss rate for ReadReq accesses
system.cpu.dcache.WriteReq_mshr_miss_rate::cpu.data     0.024395                       # mshr miss rate for WriteReq accesses
system.cpu.dcache.WriteReq_mshr_miss_rate::total     0.024395                       # mshr miss rate for WriteReq accesses
system.cpu.dcache.SoftPFReq_mshr_miss_rate::cpu.data     0.395812                       # mshr miss rate for SoftPFReq accesses
system.cpu.dcache.SoftPFReq_mshr_miss_rate::total     0.395812                       # mshr miss rate for SoftPFReq accesses
system.cpu.dcache.LoadLockedReq_mshr_miss_rate::cpu.data     0.047127                       # mshr miss rate for LoadLockedReq accesses
system.cpu.dcache.LoadLockedReq_mshr_miss_rate::total     0.047127                       # mshr miss rate for LoadLockedReq accesses
system.cpu.dcache.StoreCondReq_mshr_miss_rate::cpu.data     0.000008                       # mshr miss rate for StoreCondReq accesses
system.cpu.dcache.StoreCondReq_mshr_miss_rate::total     0.000008                       # mshr miss rate for StoreCondReq accesses
system.cpu.dcache.demand_mshr_miss_rate::cpu.data     0.024919                       # mshr miss rate for demand accesses
system.cpu.dcache.demand_mshr_miss_rate::total     0.024919                       # mshr miss rate for demand accesses
system.cpu.dcache.overall_mshr_miss_rate::cpu.data     0.028035                       # mshr miss rate for overall accesses
system.cpu.dcache.overall_mshr_miss_rate::total     0.028035                       # mshr miss rate for overall accesses
system.cpu.dcache.ReadReq_avg_mshr_miss_latency::cpu.data 11839.835950                       # average ReadReq mshr miss latency
system.cpu.dcache.ReadReq_avg_mshr_miss_latency::total 11839.835950                       # average ReadReq mshr miss latency
system.cpu.dcache.WriteReq_avg_mshr_miss_latency::cpu.data 43245.360492                       # average WriteReq mshr miss latency
system.cpu.dcache.WriteReq_avg_mshr_miss_latency::total 43245.360492                       # average WriteReq mshr miss latency
system.cpu.dcache.SoftPFReq_avg_mshr_miss_latency::cpu.data 16606.419853                       # average SoftPFReq mshr miss latency
system.cpu.dcache.SoftPFReq_avg_mshr_miss_latency::total 16606.419853                       # average SoftPFReq mshr miss latency
system.cpu.dcache.LoadLockedReq_avg_mshr_miss_latency::cpu.data 11925.861336                       # average LoadLockedReq mshr miss latency
system.cpu.dcache.LoadLockedReq_avg_mshr_miss_latency::total 11925.861336                       # average LoadLockedReq mshr miss latency
system.cpu.dcache.StoreCondReq_avg_mshr_miss_latency::cpu.data        11000                       # average StoreCondReq mshr miss latency
system.cpu.dcache.StoreCondReq_avg_mshr_miss_latency::total        11000                       # average StoreCondReq mshr miss latency
system.cpu.dcache.demand_avg_mshr_miss_latency::cpu.data 26056.301561                       # average overall mshr miss latency
system.cpu.dcache.demand_avg_mshr_miss_latency::total 26056.301561                       # average overall mshr miss latency
system.cpu.dcache.overall_avg_mshr_miss_latency::cpu.data 24935.271892                       # average overall mshr miss latency
system.cpu.dcache.overall_avg_mshr_miss_latency::total 24935.271892                       # average overall mshr miss latency
system.cpu.dcache.ReadReq_avg_mshr_uncacheable_latency::cpu.data          inf                       # average ReadReq mshr uncacheable latency
system.cpu.dcache.ReadReq_avg_mshr_uncacheable_latency::total          inf                       # average ReadReq mshr uncacheable latency
system.cpu.dcache.WriteReq_avg_mshr_uncacheable_latency::cpu.data          inf                       # average WriteReq mshr uncacheable latency
system.cpu.dcache.WriteReq_avg_mshr_uncacheable_latency::total          inf                       # average WriteReq mshr uncacheable latency
system.cpu.dcache.overall_avg_mshr_uncacheable_latency::cpu.data          inf                       # average overall mshr uncacheable latency
system.cpu.dcache.overall_avg_mshr_uncacheable_latency::total          inf                       # average overall mshr uncacheable latency
system.cpu.dcache.no_allocate_misses                0                       # Number of misses that were no-allocate
system.iocache.tags.replacements                    0                       # number of replacements
system.iocache.tags.tagsinuse                       0                       # Cycle average of tags in use
system.iocache.tags.total_refs                      0                       # Total number of references to valid blocks.
system.iocache.tags.sampled_refs                    0                       # Sample count of references to valid blocks.
system.iocache.tags.avg_refs                      nan                       # Average number of references to valid blocks.
system.iocache.tags.warmup_cycle                    0                       # Cycle when the warmup percentage was hit.
system.iocache.tags.tag_accesses                    0                       # Number of tag accesses
system.iocache.tags.data_accesses                   0                       # Number of data accesses
system.iocache.blocked_cycles::no_mshrs             0                       # number of cycles access was blocked
system.iocache.blocked_cycles::no_targets            0                       # number of cycles access was blocked
system.iocache.blocked::no_mshrs                    0                       # number of cycles access was blocked
system.iocache.blocked::no_targets                  0                       # number of cycles access was blocked
system.iocache.avg_blocked_cycles::no_mshrs          nan                       # average number of cycles each access was blocked
system.iocache.avg_blocked_cycles::no_targets          nan                       # average number of cycles each access was blocked
system.iocache.fast_writes                          0                       # number of fast writes performed
system.iocache.cache_copies                         0                       # number of cache copies performed
system.iocache.ReadReq_mshr_uncacheable_latency::realview.clcd 1736929447540                       # number of ReadReq MSHR uncacheable cycles
system.iocache.ReadReq_mshr_uncacheable_latency::total 1736929447540                       # number of ReadReq MSHR uncacheable cycles
system.iocache.overall_mshr_uncacheable_latency::realview.clcd 1736929447540                       # number of overall MSHR uncacheable cycles
system.iocache.overall_mshr_uncacheable_latency::total 1736929447540                       # number of overall MSHR uncacheable cycles
system.iocache.ReadReq_avg_mshr_uncacheable_latency::realview.clcd          inf                       # average ReadReq mshr uncacheable latency
system.iocache.ReadReq_avg_mshr_uncacheable_latency::total          inf                       # average ReadReq mshr uncacheable latency
system.iocache.overall_avg_mshr_uncacheable_latency::realview.clcd          inf                       # average overall mshr uncacheable latency
system.iocache.overall_avg_mshr_uncacheable_latency::total          inf                       # average overall mshr uncacheable latency
system.iocache.no_allocate_misses                   0                       # Number of misses that were no-allocate
system.cpu.kern.inst.arm                            0                       # number of arm instructions executed
system.cpu.kern.inst.quiesce                    83187                       # number of quiesce instructions executed

---------- End Simulation Statistics   ----------
