
---------- Begin Simulation Statistics ----------
sim_seconds                                  2.832619                       # Number of seconds simulated
sim_ticks                                2832618668500                       # Number of ticks simulated
final_tick                               2832618668500                       # Number of ticks from beginning of simulation (restored from checkpoints and never reset)
sim_freq                                 1000000000000                       # Frequency of simulated ticks
host_inst_rate                                  65632                       # Simulator instruction rate (inst/s)
host_op_rate                                    79607                       # Simulator op (including micro ops) rate (op/s)
host_tick_rate                             1643300725                       # Simulator tick rate (ticks/s)
host_mem_usage                                 630388                       # Number of bytes of host memory used
host_seconds                                  1723.74                       # Real time elapsed on the host
sim_insts                                   113133035                       # Number of instructions simulated
sim_ops                                     137220830                       # Number of ops (including micro ops) simulated
system.voltage_domain.voltage                       1                       # Voltage in Volts
system.clk_domain.clock                          1000                       # Clock period in ticks
system.physmem.bytes_read::cpu.dtb.walker         1600                       # Number of bytes read from this memory
system.physmem.bytes_read::cpu.itb.walker          448                       # Number of bytes read from this memory
system.physmem.bytes_read::cpu.inst           1321728                       # Number of bytes read from this memory
system.physmem.bytes_read::cpu.data           9386216                       # Number of bytes read from this memory
system.physmem.bytes_read::realview.ide           960                       # Number of bytes read from this memory
system.physmem.bytes_read::total             10710952                       # Number of bytes read from this memory
system.physmem.bytes_inst_read::cpu.inst      1321728                       # Number of instructions bytes read from this memory
system.physmem.bytes_inst_read::total         1321728                       # Number of instructions bytes read from this memory
system.physmem.bytes_written::writebacks      8026688                       # Number of bytes written to this memory
system.physmem.bytes_written::cpu.data          17524                       # Number of bytes written to this memory
system.physmem.bytes_written::total           8044212                       # Number of bytes written to this memory
system.physmem.num_reads::cpu.dtb.walker           25                       # Number of read requests responded to by this memory
system.physmem.num_reads::cpu.itb.walker            7                       # Number of read requests responded to by this memory
system.physmem.num_reads::cpu.inst              22899                       # Number of read requests responded to by this memory
system.physmem.num_reads::cpu.data             147180                       # Number of read requests responded to by this memory
system.physmem.num_reads::realview.ide             15                       # Number of read requests responded to by this memory
system.physmem.num_reads::total                170126                       # Number of read requests responded to by this memory
system.physmem.num_writes::writebacks          125417                       # Number of write requests responded to by this memory
system.physmem.num_writes::cpu.data              4381                       # Number of write requests responded to by this memory
system.physmem.num_writes::total               129798                       # Number of write requests responded to by this memory
system.physmem.bw_read::cpu.dtb.walker            565                       # Total read bandwidth from this memory (bytes/s)
system.physmem.bw_read::cpu.itb.walker            158                       # Total read bandwidth from this memory (bytes/s)
system.physmem.bw_read::cpu.inst               466610                       # Total read bandwidth from this memory (bytes/s)
system.physmem.bw_read::cpu.data              3313618                       # Total read bandwidth from this memory (bytes/s)
system.physmem.bw_read::realview.ide              339                       # Total read bandwidth from this memory (bytes/s)
system.physmem.bw_read::total                 3781290                       # Total read bandwidth from this memory (bytes/s)
system.physmem.bw_inst_read::cpu.inst          466610                       # Instruction read bandwidth from this memory (bytes/s)
system.physmem.bw_inst_read::total             466610                       # Instruction read bandwidth from this memory (bytes/s)
system.physmem.bw_write::writebacks           2833663                       # Write bandwidth from this memory (bytes/s)
system.physmem.bw_write::cpu.data                6187                       # Write bandwidth from this memory (bytes/s)
system.physmem.bw_write::total                2839850                       # Write bandwidth from this memory (bytes/s)
system.physmem.bw_total::writebacks           2833663                       # Total bandwidth to/from this memory (bytes/s)
system.physmem.bw_total::cpu.dtb.walker           565                       # Total bandwidth to/from this memory (bytes/s)
system.physmem.bw_total::cpu.itb.walker           158                       # Total bandwidth to/from this memory (bytes/s)
system.physmem.bw_total::cpu.inst              466610                       # Total bandwidth to/from this memory (bytes/s)
system.physmem.bw_total::cpu.data             3319804                       # Total bandwidth to/from this memory (bytes/s)
system.physmem.bw_total::realview.ide             339                       # Total bandwidth to/from this memory (bytes/s)
system.physmem.bw_total::total                6621140                       # Total bandwidth to/from this memory (bytes/s)
system.physmem.readReqs                        170127                       # Number of read requests accepted
system.physmem.writeReqs                       129798                       # Number of write requests accepted
system.physmem.readBursts                      170127                       # Number of DRAM read bursts, including those serviced by the write queue
system.physmem.writeBursts                     129798                       # Number of DRAM write bursts, including those merged in the write queue
system.physmem.bytesReadDRAM                 10879424                       # Total number of bytes read from DRAM
system.physmem.bytesReadWrQ                      8704                       # Total number of bytes read from write queue
system.physmem.bytesWritten                   8056320                       # Total number of bytes written to DRAM
system.physmem.bytesReadSys                  10711016                       # Total read bytes from the system interface side
system.physmem.bytesWrittenSys                8044212                       # Total written bytes from the system interface side
system.physmem.servicedByWrQ                      136                       # Number of DRAM read bursts serviced by the write queue
system.physmem.mergedWrBursts                    3887                       # Number of DRAM write bursts merged with an existing one
system.physmem.neitherReadNorWriteReqs          40796                       # Number of requests that are neither read nor write
system.physmem.perBankRdBursts::0               11277                       # Per bank write bursts
system.physmem.perBankRdBursts::1               10595                       # Per bank write bursts
system.physmem.perBankRdBursts::2               11086                       # Per bank write bursts
system.physmem.perBankRdBursts::3               11282                       # Per bank write bursts
system.physmem.perBankRdBursts::4               12957                       # Per bank write bursts
system.physmem.perBankRdBursts::5                9975                       # Per bank write bursts
system.physmem.perBankRdBursts::6               10510                       # Per bank write bursts
system.physmem.perBankRdBursts::7               10855                       # Per bank write bursts
system.physmem.perBankRdBursts::8               10363                       # Per bank write bursts
system.physmem.perBankRdBursts::9               10082                       # Per bank write bursts
system.physmem.perBankRdBursts::10              10269                       # Per bank write bursts
system.physmem.perBankRdBursts::11               9303                       # Per bank write bursts
system.physmem.perBankRdBursts::12               9940                       # Per bank write bursts
system.physmem.perBankRdBursts::13              11053                       # Per bank write bursts
system.physmem.perBankRdBursts::14              10302                       # Per bank write bursts
system.physmem.perBankRdBursts::15              10142                       # Per bank write bursts
system.physmem.perBankWrBursts::0                8501                       # Per bank write bursts
system.physmem.perBankWrBursts::1                7938                       # Per bank write bursts
system.physmem.perBankWrBursts::2                8637                       # Per bank write bursts
system.physmem.perBankWrBursts::3                8770                       # Per bank write bursts
system.physmem.perBankWrBursts::4                7610                       # Per bank write bursts
system.physmem.perBankWrBursts::5                7376                       # Per bank write bursts
system.physmem.perBankWrBursts::6                7709                       # Per bank write bursts
system.physmem.perBankWrBursts::7                8071                       # Per bank write bursts
system.physmem.perBankWrBursts::8                7782                       # Per bank write bursts
system.physmem.perBankWrBursts::9                7594                       # Per bank write bursts
system.physmem.perBankWrBursts::10               7680                       # Per bank write bursts
system.physmem.perBankWrBursts::11               6982                       # Per bank write bursts
system.physmem.perBankWrBursts::12               7590                       # Per bank write bursts
system.physmem.perBankWrBursts::13               8396                       # Per bank write bursts
system.physmem.perBankWrBursts::14               7757                       # Per bank write bursts
system.physmem.perBankWrBursts::15               7487                       # Per bank write bursts
system.physmem.numRdRetry                           0                       # Number of times read queue was full causing retry
system.physmem.numWrRetry                           5                       # Number of times write queue was full causing retry
system.physmem.totGap                    2832618457500                       # Total gap between requests
system.physmem.readPktSize::0                       0                       # Read request sizes (log2)
system.physmem.readPktSize::1                       0                       # Read request sizes (log2)
system.physmem.readPktSize::2                     542                       # Read request sizes (log2)
system.physmem.readPktSize::3                      14                       # Read request sizes (log2)
system.physmem.readPktSize::4                    2996                       # Read request sizes (log2)
system.physmem.readPktSize::5                       0                       # Read request sizes (log2)
system.physmem.readPktSize::6                  166575                       # Read request sizes (log2)
system.physmem.writePktSize::0                      0                       # Write request sizes (log2)
system.physmem.writePktSize::1                      0                       # Write request sizes (log2)
system.physmem.writePktSize::2                   4381                       # Write request sizes (log2)
system.physmem.writePktSize::3                      0                       # Write request sizes (log2)
system.physmem.writePktSize::4                      0                       # Write request sizes (log2)
system.physmem.writePktSize::5                      0                       # Write request sizes (log2)
system.physmem.writePktSize::6                 125417                       # Write request sizes (log2)
system.physmem.rdQLenPdf::0                    150718                       # What read queue length does an incoming req see
system.physmem.rdQLenPdf::1                     16419                       # What read queue length does an incoming req see
system.physmem.rdQLenPdf::2                      2119                       # What read queue length does an incoming req see
system.physmem.rdQLenPdf::3                       721                       # What read queue length does an incoming req see
system.physmem.rdQLenPdf::4                         4                       # What read queue length does an incoming req see
system.physmem.rdQLenPdf::5                         1                       # What read queue length does an incoming req see
system.physmem.rdQLenPdf::6                         1                       # What read queue length does an incoming req see
system.physmem.rdQLenPdf::7                         1                       # What read queue length does an incoming req see
system.physmem.rdQLenPdf::8                         1                       # What read queue length does an incoming req see
system.physmem.rdQLenPdf::9                         1                       # What read queue length does an incoming req see
system.physmem.rdQLenPdf::10                        1                       # What read queue length does an incoming req see
system.physmem.rdQLenPdf::11                        1                       # What read queue length does an incoming req see
system.physmem.rdQLenPdf::12                        1                       # What read queue length does an incoming req see
system.physmem.rdQLenPdf::13                        1                       # What read queue length does an incoming req see
system.physmem.rdQLenPdf::14                        1                       # What read queue length does an incoming req see
system.physmem.rdQLenPdf::15                        0                       # What read queue length does an incoming req see
system.physmem.rdQLenPdf::16                        0                       # What read queue length does an incoming req see
system.physmem.rdQLenPdf::17                        0                       # What read queue length does an incoming req see
system.physmem.rdQLenPdf::18                        0                       # What read queue length does an incoming req see
system.physmem.rdQLenPdf::19                        0                       # What read queue length does an incoming req see
system.physmem.rdQLenPdf::20                        0                       # What read queue length does an incoming req see
system.physmem.rdQLenPdf::21                        0                       # What read queue length does an incoming req see
system.physmem.rdQLenPdf::22                        0                       # What read queue length does an incoming req see
system.physmem.rdQLenPdf::23                        0                       # What read queue length does an incoming req see
system.physmem.rdQLenPdf::24                        0                       # What read queue length does an incoming req see
system.physmem.rdQLenPdf::25                        0                       # What read queue length does an incoming req see
system.physmem.rdQLenPdf::26                        0                       # What read queue length does an incoming req see
system.physmem.rdQLenPdf::27                        0                       # What read queue length does an incoming req see
system.physmem.rdQLenPdf::28                        0                       # What read queue length does an incoming req see
system.physmem.rdQLenPdf::29                        0                       # What read queue length does an incoming req see
system.physmem.rdQLenPdf::30                        0                       # What read queue length does an incoming req see
system.physmem.rdQLenPdf::31                        0                       # What read queue length does an incoming req see
system.physmem.wrQLenPdf::0                         1                       # What write queue length does an incoming req see
system.physmem.wrQLenPdf::1                         1                       # What write queue length does an incoming req see
system.physmem.wrQLenPdf::2                         1                       # What write queue length does an incoming req see
system.physmem.wrQLenPdf::3                         1                       # What write queue length does an incoming req see
system.physmem.wrQLenPdf::4                         1                       # What write queue length does an incoming req see
system.physmem.wrQLenPdf::5                         1                       # What write queue length does an incoming req see
system.physmem.wrQLenPdf::6                         1                       # What write queue length does an incoming req see
system.physmem.wrQLenPdf::7                         1                       # What write queue length does an incoming req see
system.physmem.wrQLenPdf::8                         1                       # What write queue length does an incoming req see
system.physmem.wrQLenPdf::9                         1                       # What write queue length does an incoming req see
system.physmem.wrQLenPdf::10                        1                       # What write queue length does an incoming req see
system.physmem.wrQLenPdf::11                        1                       # What write queue length does an incoming req see
system.physmem.wrQLenPdf::12                        1                       # What write queue length does an incoming req see
system.physmem.wrQLenPdf::13                        1                       # What write queue length does an incoming req see
system.physmem.wrQLenPdf::14                        1                       # What write queue length does an incoming req see
system.physmem.wrQLenPdf::15                     2020                       # What write queue length does an incoming req see
system.physmem.wrQLenPdf::16                     2365                       # What write queue length does an incoming req see
system.physmem.wrQLenPdf::17                     5703                       # What write queue length does an incoming req see
system.physmem.wrQLenPdf::18                     6082                       # What write queue length does an incoming req see
system.physmem.wrQLenPdf::19                     6634                       # What write queue length does an incoming req see
system.physmem.wrQLenPdf::20                     6948                       # What write queue length does an incoming req see
system.physmem.wrQLenPdf::21                     7769                       # What write queue length does an incoming req see
system.physmem.wrQLenPdf::22                     7284                       # What write queue length does an incoming req see
system.physmem.wrQLenPdf::23                     8232                       # What write queue length does an incoming req see
system.physmem.wrQLenPdf::24                     8372                       # What write queue length does an incoming req see
system.physmem.wrQLenPdf::25                     8373                       # What write queue length does an incoming req see
system.physmem.wrQLenPdf::26                     9787                       # What write queue length does an incoming req see
system.physmem.wrQLenPdf::27                     7853                       # What write queue length does an incoming req see
system.physmem.wrQLenPdf::28                     7455                       # What write queue length does an incoming req see
system.physmem.wrQLenPdf::29                     7461                       # What write queue length does an incoming req see
system.physmem.wrQLenPdf::30                     7073                       # What write queue length does an incoming req see
system.physmem.wrQLenPdf::31                     6629                       # What write queue length does an incoming req see
system.physmem.wrQLenPdf::32                     6529                       # What write queue length does an incoming req see
system.physmem.wrQLenPdf::33                      279                       # What write queue length does an incoming req see
system.physmem.wrQLenPdf::34                      258                       # What write queue length does an incoming req see
system.physmem.wrQLenPdf::35                      214                       # What write queue length does an incoming req see
system.physmem.wrQLenPdf::36                      155                       # What write queue length does an incoming req see
system.physmem.wrQLenPdf::37                      146                       # What write queue length does an incoming req see
system.physmem.wrQLenPdf::38                      185                       # What write queue length does an incoming req see
system.physmem.wrQLenPdf::39                      145                       # What write queue length does an incoming req see
system.physmem.wrQLenPdf::40                      165                       # What write queue length does an incoming req see
system.physmem.wrQLenPdf::41                      134                       # What write queue length does an incoming req see
system.physmem.wrQLenPdf::42                      168                       # What write queue length does an incoming req see
system.physmem.wrQLenPdf::43                      140                       # What write queue length does an incoming req see
system.physmem.wrQLenPdf::44                      128                       # What write queue length does an incoming req see
system.physmem.wrQLenPdf::45                       86                       # What write queue length does an incoming req see
system.physmem.wrQLenPdf::46                       81                       # What write queue length does an incoming req see
system.physmem.wrQLenPdf::47                      102                       # What write queue length does an incoming req see
system.physmem.wrQLenPdf::48                      113                       # What write queue length does an incoming req see
system.physmem.wrQLenPdf::49                      158                       # What write queue length does an incoming req see
system.physmem.wrQLenPdf::50                       99                       # What write queue length does an incoming req see
system.physmem.wrQLenPdf::51                       67                       # What write queue length does an incoming req see
system.physmem.wrQLenPdf::52                       70                       # What write queue length does an incoming req see
system.physmem.wrQLenPdf::53                      110                       # What write queue length does an incoming req see
system.physmem.wrQLenPdf::54                       59                       # What write queue length does an incoming req see
system.physmem.wrQLenPdf::55                       49                       # What write queue length does an incoming req see
system.physmem.wrQLenPdf::56                       49                       # What write queue length does an incoming req see
system.physmem.wrQLenPdf::57                       40                       # What write queue length does an incoming req see
system.physmem.wrQLenPdf::58                       23                       # What write queue length does an incoming req see
system.physmem.wrQLenPdf::59                       34                       # What write queue length does an incoming req see
system.physmem.wrQLenPdf::60                       18                       # What write queue length does an incoming req see
system.physmem.wrQLenPdf::61                       19                       # What write queue length does an incoming req see
system.physmem.wrQLenPdf::62                       19                       # What write queue length does an incoming req see
system.physmem.wrQLenPdf::63                       14                       # What write queue length does an incoming req see
system.physmem.bytesPerActivate::samples        62118                       # Bytes accessed per row activation
system.physmem.bytesPerActivate::mean      304.834026                       # Bytes accessed per row activation
system.physmem.bytesPerActivate::gmean     180.217682                       # Bytes accessed per row activation
system.physmem.bytesPerActivate::stdev     324.637512                       # Bytes accessed per row activation
system.physmem.bytesPerActivate::0-127          23314     37.53%     37.53% # Bytes accessed per row activation
system.physmem.bytesPerActivate::128-255        14709     23.68%     61.21% # Bytes accessed per row activation
system.physmem.bytesPerActivate::256-383         6728     10.83%     72.04% # Bytes accessed per row activation
system.physmem.bytesPerActivate::384-511         3491      5.62%     77.66% # Bytes accessed per row activation
system.physmem.bytesPerActivate::512-639         2622      4.22%     81.88% # Bytes accessed per row activation
system.physmem.bytesPerActivate::640-767         1595      2.57%     84.45% # Bytes accessed per row activation
system.physmem.bytesPerActivate::768-895         1577      2.54%     86.99% # Bytes accessed per row activation
system.physmem.bytesPerActivate::896-1023         1006      1.62%     88.61% # Bytes accessed per row activation
system.physmem.bytesPerActivate::1024-1151         7076     11.39%    100.00% # Bytes accessed per row activation
system.physmem.bytesPerActivate::total          62118                       # Bytes accessed per row activation
system.physmem.rdPerTurnAround::samples          6287                       # Reads before turning the bus around for writes
system.physmem.rdPerTurnAround::mean        27.034993                       # Reads before turning the bus around for writes
system.physmem.rdPerTurnAround::stdev      563.024200                       # Reads before turning the bus around for writes
system.physmem.rdPerTurnAround::0-2047           6286     99.98%     99.98% # Reads before turning the bus around for writes
system.physmem.rdPerTurnAround::43008-45055            1      0.02%    100.00% # Reads before turning the bus around for writes
system.physmem.rdPerTurnAround::total            6287                       # Reads before turning the bus around for writes
system.physmem.wrPerTurnAround::samples          6287                       # Writes before turning the bus around for reads
system.physmem.wrPerTurnAround::mean        20.022268                       # Writes before turning the bus around for reads
system.physmem.wrPerTurnAround::gmean       18.451800                       # Writes before turning the bus around for reads
system.physmem.wrPerTurnAround::stdev       12.249481                       # Writes before turning the bus around for reads
system.physmem.wrPerTurnAround::16-19            5461     86.86%     86.86% # Writes before turning the bus around for reads
system.physmem.wrPerTurnAround::20-23             111      1.77%     88.63% # Writes before turning the bus around for reads
system.physmem.wrPerTurnAround::24-27              41      0.65%     89.28% # Writes before turning the bus around for reads
system.physmem.wrPerTurnAround::28-31             176      2.80%     92.08% # Writes before turning the bus around for reads
system.physmem.wrPerTurnAround::32-35              30      0.48%     92.56% # Writes before turning the bus around for reads
system.physmem.wrPerTurnAround::36-39             149      2.37%     94.93% # Writes before turning the bus around for reads
system.physmem.wrPerTurnAround::40-43              46      0.73%     95.66% # Writes before turning the bus around for reads
system.physmem.wrPerTurnAround::44-47               9      0.14%     95.80% # Writes before turning the bus around for reads
system.physmem.wrPerTurnAround::48-51              13      0.21%     96.01% # Writes before turning the bus around for reads
system.physmem.wrPerTurnAround::52-55              18      0.29%     96.29% # Writes before turning the bus around for reads
system.physmem.wrPerTurnAround::56-59               5      0.08%     96.37% # Writes before turning the bus around for reads
system.physmem.wrPerTurnAround::60-63               3      0.05%     96.42% # Writes before turning the bus around for reads
system.physmem.wrPerTurnAround::64-67             163      2.59%     99.01% # Writes before turning the bus around for reads
system.physmem.wrPerTurnAround::68-71               4      0.06%     99.08% # Writes before turning the bus around for reads
system.physmem.wrPerTurnAround::72-75               8      0.13%     99.20% # Writes before turning the bus around for reads
system.physmem.wrPerTurnAround::76-79              20      0.32%     99.52% # Writes before turning the bus around for reads
system.physmem.wrPerTurnAround::80-83               2      0.03%     99.55% # Writes before turning the bus around for reads
system.physmem.wrPerTurnAround::84-87               3      0.05%     99.60% # Writes before turning the bus around for reads
system.physmem.wrPerTurnAround::96-99               1      0.02%     99.62% # Writes before turning the bus around for reads
system.physmem.wrPerTurnAround::100-103             2      0.03%     99.65% # Writes before turning the bus around for reads
system.physmem.wrPerTurnAround::104-107             1      0.02%     99.67% # Writes before turning the bus around for reads
system.physmem.wrPerTurnAround::112-115             1      0.02%     99.68% # Writes before turning the bus around for reads
system.physmem.wrPerTurnAround::124-127             2      0.03%     99.71% # Writes before turning the bus around for reads
system.physmem.wrPerTurnAround::128-131            13      0.21%     99.92% # Writes before turning the bus around for reads
system.physmem.wrPerTurnAround::156-159             1      0.02%     99.94% # Writes before turning the bus around for reads
system.physmem.wrPerTurnAround::164-167             4      0.06%    100.00% # Writes before turning the bus around for reads
system.physmem.wrPerTurnAround::total            6287                       # Writes before turning the bus around for reads
system.physmem.totQLat                     2109686750                       # Total ticks spent queuing
system.physmem.totMemAccLat                5297018000                       # Total ticks spent from burst creation until serviced by the DRAM
system.physmem.totBusLat                    849955000                       # Total ticks spent in databus transfers
system.physmem.avgQLat                       12410.58                       # Average queueing delay per DRAM burst
system.physmem.avgBusLat                      5000.00                       # Average bus latency per DRAM burst
system.physmem.avgMemAccLat                  31160.58                       # Average memory access latency per DRAM burst
system.physmem.avgRdBW                           3.84                       # Average DRAM read bandwidth in MiByte/s
system.physmem.avgWrBW                           2.84                       # Average achieved write bandwidth in MiByte/s
system.physmem.avgRdBWSys                        3.78                       # Average system read bandwidth in MiByte/s
system.physmem.avgWrBWSys                        2.84                       # Average system write bandwidth in MiByte/s
system.physmem.peakBW                        12800.00                       # Theoretical peak bandwidth in MiByte/s
system.physmem.busUtil                           0.05                       # Data bus utilization in percentage
system.physmem.busUtilRead                       0.03                       # Data bus utilization in percentage for reads
system.physmem.busUtilWrite                      0.02                       # Data bus utilization in percentage for writes
system.physmem.avgRdQLen                         1.01                       # Average read queue length when enqueuing
system.physmem.avgWrQLen                        26.90                       # Average write queue length when enqueuing
system.physmem.readRowHits                     139766                       # Number of row buffer hits during reads
system.physmem.writeRowHits                     93986                       # Number of row buffer hits during writes
system.physmem.readRowHitRate                   82.22                       # Row buffer hit rate for reads
system.physmem.writeRowHitRate                  74.64                       # Row buffer hit rate for writes
system.physmem.avgGap                      9444422.63                       # Average gap between requests
system.physmem.pageHitRate                      79.00                       # Row buffer hit rate, read and write combined
system.physmem_0.actEnergy                  244301400                       # Energy for activate commands per rank (pJ)
system.physmem_0.preEnergy                  133299375                       # Energy for precharge commands per rank (pJ)
system.physmem_0.readEnergy                 690588600                       # Energy for read commands per rank (pJ)
system.physmem_0.writeEnergy                418685760                       # Energy for write commands per rank (pJ)
system.physmem_0.refreshEnergy           185012602320                       # Energy for refresh commands per rank (pJ)
system.physmem_0.actBackEnergy            83544770610                       # Energy for active background per rank (pJ)
system.physmem_0.preBackEnergy           1626283896000                       # Energy for precharge background per rank (pJ)
system.physmem_0.totalEnergy             1896328144065                       # Total energy per rank (pJ)
system.physmem_0.averagePower              669.462100                       # Core power per rank (mW)
system.physmem_0.memoryStateTime::IDLE   2705327267750                       # Time in different power states
system.physmem_0.memoryStateTime::REF     94587220000                       # Time in different power states
system.physmem_0.memoryStateTime::PRE_PDN            0                       # Time in different power states
system.physmem_0.memoryStateTime::ACT     32700163500                       # Time in different power states
system.physmem_0.memoryStateTime::ACT_PDN            0                       # Time in different power states
system.physmem_1.actEnergy                  225310680                       # Energy for activate commands per rank (pJ)
system.physmem_1.preEnergy                  122937375                       # Energy for precharge commands per rank (pJ)
system.physmem_1.readEnergy                 635333400                       # Energy for read commands per rank (pJ)
system.physmem_1.writeEnergy                397016640                       # Energy for write commands per rank (pJ)
system.physmem_1.refreshEnergy           185012602320                       # Energy for refresh commands per rank (pJ)
system.physmem_1.actBackEnergy            82147816890                       # Energy for active background per rank (pJ)
system.physmem_1.preBackEnergy           1627509294000                       # Energy for precharge background per rank (pJ)
system.physmem_1.totalEnergy             1896050311305                       # Total energy per rank (pJ)
system.physmem_1.averagePower              669.364017                       # Core power per rank (mW)
system.physmem_1.memoryStateTime::IDLE   2707380849000                       # Time in different power states
system.physmem_1.memoryStateTime::REF     94587220000                       # Time in different power states
system.physmem_1.memoryStateTime::PRE_PDN            0                       # Time in different power states
system.physmem_1.memoryStateTime::ACT     30650586000                       # Time in different power states
system.physmem_1.memoryStateTime::ACT_PDN            0                       # Time in different power states
system.realview.nvmem.bytes_read::cpu.inst          128                       # Number of bytes read from this memory
system.realview.nvmem.bytes_read::total           128                       # Number of bytes read from this memory
system.realview.nvmem.bytes_inst_read::cpu.inst          128                       # Number of instructions bytes read from this memory
system.realview.nvmem.bytes_inst_read::total          128                       # Number of instructions bytes read from this memory
system.realview.nvmem.num_reads::cpu.inst            8                       # Number of read requests responded to by this memory
system.realview.nvmem.num_reads::total              8                       # Number of read requests responded to by this memory
system.realview.nvmem.bw_read::cpu.inst            45                       # Total read bandwidth from this memory (bytes/s)
system.realview.nvmem.bw_read::total               45                       # Total read bandwidth from this memory (bytes/s)
system.realview.nvmem.bw_inst_read::cpu.inst           45                       # Instruction read bandwidth from this memory (bytes/s)
system.realview.nvmem.bw_inst_read::total           45                       # Instruction read bandwidth from this memory (bytes/s)
system.realview.nvmem.bw_total::cpu.inst           45                       # Total bandwidth to/from this memory (bytes/s)
system.realview.nvmem.bw_total::total              45                       # Total bandwidth to/from this memory (bytes/s)
system.cf0.dma_read_full_pages                      0                       # Number of full page size DMA reads (not PRD).
system.cf0.dma_read_bytes                        1024                       # Number of bytes transfered via DMA reads (not PRD).
system.cf0.dma_read_txs                             1                       # Number of DMA read transactions (not PRD).
system.cf0.dma_write_full_pages                   540                       # Number of full page size DMA writes.
system.cf0.dma_write_bytes                    2318336                       # Number of bytes transfered via DMA writes.
system.cf0.dma_write_txs                          631                       # Number of DMA write transactions.
system.cpu.branchPred.lookups                46909632                       # Number of BP lookups
system.cpu.branchPred.condPredicted          24036779                       # Number of conditional branches predicted
system.cpu.branchPred.condIncorrect           1233520                       # Number of conditional branches incorrect
system.cpu.branchPred.BTBLookups             29533462                       # Number of BTB lookups
system.cpu.branchPred.BTBHits                21344460                       # Number of BTB hits
system.cpu.branchPred.BTBCorrect                    0                       # Number of correct BTB predictions (this stat may not work properly.
system.cpu.branchPred.BTBHitPct             72.272123                       # BTB Hit Percentage
system.cpu.branchPred.usedRAS                11742450                       # Number of times the RAS was used to get a target.
system.cpu.branchPred.RASInCorrect              33774                       # Number of incorrect RAS predictions.
system.cpu_clk_domain.clock                       500                       # Clock period in ticks
system.cpu.checker.dstage2_mmu.stage2_tlb.walker.walks            0                       # Table walker walks requested
system.cpu.checker.dstage2_mmu.stage2_tlb.walker.walkRequestOrigin_Requested::Data            0                       # Table walker requests started/completed, data/inst
system.cpu.checker.dstage2_mmu.stage2_tlb.walker.walkRequestOrigin_Requested::Inst            0                       # Table walker requests started/completed, data/inst
system.cpu.checker.dstage2_mmu.stage2_tlb.walker.walkRequestOrigin_Requested::total            0                       # Table walker requests started/completed, data/inst
system.cpu.checker.dstage2_mmu.stage2_tlb.walker.walkRequestOrigin_Completed::Data            0                       # Table walker requests started/completed, data/inst
system.cpu.checker.dstage2_mmu.stage2_tlb.walker.walkRequestOrigin_Completed::Inst            0                       # Table walker requests started/completed, data/inst
system.cpu.checker.dstage2_mmu.stage2_tlb.walker.walkRequestOrigin_Completed::total            0                       # Table walker requests started/completed, data/inst
system.cpu.checker.dstage2_mmu.stage2_tlb.walker.walkRequestOrigin::total            0                       # Table walker requests started/completed, data/inst
system.cpu.checker.dstage2_mmu.stage2_tlb.inst_hits            0                       # ITB inst hits
system.cpu.checker.dstage2_mmu.stage2_tlb.inst_misses            0                       # ITB inst misses
system.cpu.checker.dstage2_mmu.stage2_tlb.read_hits            0                       # DTB read hits
system.cpu.checker.dstage2_mmu.stage2_tlb.read_misses            0                       # DTB read misses
system.cpu.checker.dstage2_mmu.stage2_tlb.write_hits            0                       # DTB write hits
system.cpu.checker.dstage2_mmu.stage2_tlb.write_misses            0                       # DTB write misses
system.cpu.checker.dstage2_mmu.stage2_tlb.flush_tlb            0                       # Number of times complete TLB was flushed
system.cpu.checker.dstage2_mmu.stage2_tlb.flush_tlb_mva            0                       # Number of times TLB was flushed by MVA
system.cpu.checker.dstage2_mmu.stage2_tlb.flush_tlb_mva_asid            0                       # Number of times TLB was flushed by MVA & ASID
system.cpu.checker.dstage2_mmu.stage2_tlb.flush_tlb_asid            0                       # Number of times TLB was flushed by ASID
system.cpu.checker.dstage2_mmu.stage2_tlb.flush_entries            0                       # Number of entries that have been flushed from TLB
system.cpu.checker.dstage2_mmu.stage2_tlb.align_faults            0                       # Number of TLB faults due to alignment restrictions
system.cpu.checker.dstage2_mmu.stage2_tlb.prefetch_faults            0                       # Number of TLB faults due to prefetch
system.cpu.checker.dstage2_mmu.stage2_tlb.domain_faults            0                       # Number of TLB faults due to domain restrictions
system.cpu.checker.dstage2_mmu.stage2_tlb.perms_faults            0                       # Number of TLB faults due to permissions restrictions
system.cpu.checker.dstage2_mmu.stage2_tlb.read_accesses            0                       # DTB read accesses
system.cpu.checker.dstage2_mmu.stage2_tlb.write_accesses            0                       # DTB write accesses
system.cpu.checker.dstage2_mmu.stage2_tlb.inst_accesses            0                       # ITB inst accesses
system.cpu.checker.dstage2_mmu.stage2_tlb.hits            0                       # DTB hits
system.cpu.checker.dstage2_mmu.stage2_tlb.misses            0                       # DTB misses
system.cpu.checker.dstage2_mmu.stage2_tlb.accesses            0                       # DTB accesses
system.cpu.checker.dtb.walker.walks              9696                       # Table walker walks requested
system.cpu.checker.dtb.walker.walksShort         9696                       # Table walker walks initiated with short descriptors
system.cpu.checker.dtb.walker.walkWaitTime::samples         9696                       # Table walker wait (enqueue to first request) latency
system.cpu.checker.dtb.walker.walkWaitTime::0         9696    100.00%    100.00% # Table walker wait (enqueue to first request) latency
system.cpu.checker.dtb.walker.walkWaitTime::total         9696                       # Table walker wait (enqueue to first request) latency
system.cpu.checker.dtb.walker.walksPending::samples    375751000                       # Table walker pending requests distribution
system.cpu.checker.dtb.walker.walksPending::0    375751000    100.00%    100.00% # Table walker pending requests distribution
system.cpu.checker.dtb.walker.walksPending::total    375751000                       # Table walker pending requests distribution
system.cpu.checker.dtb.walker.walkPageSizes::4K         6227     82.67%     82.67% # Table walker page sizes translated
system.cpu.checker.dtb.walker.walkPageSizes::1M         1305     17.33%    100.00% # Table walker page sizes translated
system.cpu.checker.dtb.walker.walkPageSizes::total         7532                       # Table walker page sizes translated
system.cpu.checker.dtb.walker.walkRequestOrigin_Requested::Data         9696                       # Table walker requests started/completed, data/inst
system.cpu.checker.dtb.walker.walkRequestOrigin_Requested::Inst            0                       # Table walker requests started/completed, data/inst
system.cpu.checker.dtb.walker.walkRequestOrigin_Requested::total         9696                       # Table walker requests started/completed, data/inst
system.cpu.checker.dtb.walker.walkRequestOrigin_Completed::Data         7532                       # Table walker requests started/completed, data/inst
system.cpu.checker.dtb.walker.walkRequestOrigin_Completed::Inst            0                       # Table walker requests started/completed, data/inst
system.cpu.checker.dtb.walker.walkRequestOrigin_Completed::total         7532                       # Table walker requests started/completed, data/inst
system.cpu.checker.dtb.walker.walkRequestOrigin::total        17228                       # Table walker requests started/completed, data/inst
system.cpu.checker.dtb.inst_hits                    0                       # ITB inst hits
system.cpu.checker.dtb.inst_misses                  0                       # ITB inst misses
system.cpu.checker.dtb.read_hits             24584215                       # DTB read hits
system.cpu.checker.dtb.read_misses               8281                       # DTB read misses
system.cpu.checker.dtb.write_hits            19636610                       # DTB write hits
system.cpu.checker.dtb.write_misses              1415                       # DTB write misses
system.cpu.checker.dtb.flush_tlb                  128                       # Number of times complete TLB was flushed
system.cpu.checker.dtb.flush_tlb_mva             1834                       # Number of times TLB was flushed by MVA
system.cpu.checker.dtb.flush_tlb_mva_asid            0                       # Number of times TLB was flushed by MVA & ASID
system.cpu.checker.dtb.flush_tlb_asid               0                       # Number of times TLB was flushed by ASID
system.cpu.checker.dtb.flush_entries             4283                       # Number of entries that have been flushed from TLB
system.cpu.checker.dtb.align_faults                 0                       # Number of TLB faults due to alignment restrictions
system.cpu.checker.dtb.prefetch_faults           1650                       # Number of TLB faults due to prefetch
system.cpu.checker.dtb.domain_faults                0                       # Number of TLB faults due to domain restrictions
system.cpu.checker.dtb.perms_faults               445                       # Number of TLB faults due to permissions restrictions
system.cpu.checker.dtb.read_accesses         24592496                       # DTB read accesses
system.cpu.checker.dtb.write_accesses        19638025                       # DTB write accesses
system.cpu.checker.dtb.inst_accesses                0                       # ITB inst accesses
system.cpu.checker.dtb.hits                  44220825                       # DTB hits
system.cpu.checker.dtb.misses                    9696                       # DTB misses
system.cpu.checker.dtb.accesses              44230521                       # DTB accesses
system.cpu.checker.istage2_mmu.stage2_tlb.walker.walks            0                       # Table walker walks requested
system.cpu.checker.istage2_mmu.stage2_tlb.walker.walkRequestOrigin_Requested::Data            0                       # Table walker requests started/completed, data/inst
system.cpu.checker.istage2_mmu.stage2_tlb.walker.walkRequestOrigin_Requested::Inst            0                       # Table walker requests started/completed, data/inst
system.cpu.checker.istage2_mmu.stage2_tlb.walker.walkRequestOrigin_Requested::total            0                       # Table walker requests started/completed, data/inst
system.cpu.checker.istage2_mmu.stage2_tlb.walker.walkRequestOrigin_Completed::Data            0                       # Table walker requests started/completed, data/inst
system.cpu.checker.istage2_mmu.stage2_tlb.walker.walkRequestOrigin_Completed::Inst            0                       # Table walker requests started/completed, data/inst
system.cpu.checker.istage2_mmu.stage2_tlb.walker.walkRequestOrigin_Completed::total            0                       # Table walker requests started/completed, data/inst
system.cpu.checker.istage2_mmu.stage2_tlb.walker.walkRequestOrigin::total            0                       # Table walker requests started/completed, data/inst
system.cpu.checker.istage2_mmu.stage2_tlb.inst_hits            0                       # ITB inst hits
system.cpu.checker.istage2_mmu.stage2_tlb.inst_misses            0                       # ITB inst misses
system.cpu.checker.istage2_mmu.stage2_tlb.read_hits            0                       # DTB read hits
system.cpu.checker.istage2_mmu.stage2_tlb.read_misses            0                       # DTB read misses
system.cpu.checker.istage2_mmu.stage2_tlb.write_hits            0                       # DTB write hits
system.cpu.checker.istage2_mmu.stage2_tlb.write_misses            0                       # DTB write misses
system.cpu.checker.istage2_mmu.stage2_tlb.flush_tlb            0                       # Number of times complete TLB was flushed
system.cpu.checker.istage2_mmu.stage2_tlb.flush_tlb_mva            0                       # Number of times TLB was flushed by MVA
system.cpu.checker.istage2_mmu.stage2_tlb.flush_tlb_mva_asid            0                       # Number of times TLB was flushed by MVA & ASID
system.cpu.checker.istage2_mmu.stage2_tlb.flush_tlb_asid            0                       # Number of times TLB was flushed by ASID
system.cpu.checker.istage2_mmu.stage2_tlb.flush_entries            0                       # Number of entries that have been flushed from TLB
system.cpu.checker.istage2_mmu.stage2_tlb.align_faults            0                       # Number of TLB faults due to alignment restrictions
system.cpu.checker.istage2_mmu.stage2_tlb.prefetch_faults            0                       # Number of TLB faults due to prefetch
system.cpu.checker.istage2_mmu.stage2_tlb.domain_faults            0                       # Number of TLB faults due to domain restrictions
system.cpu.checker.istage2_mmu.stage2_tlb.perms_faults            0                       # Number of TLB faults due to permissions restrictions
system.cpu.checker.istage2_mmu.stage2_tlb.read_accesses            0                       # DTB read accesses
system.cpu.checker.istage2_mmu.stage2_tlb.write_accesses            0                       # DTB write accesses
system.cpu.checker.istage2_mmu.stage2_tlb.inst_accesses            0                       # ITB inst accesses
system.cpu.checker.istage2_mmu.stage2_tlb.hits            0                       # DTB hits
system.cpu.checker.istage2_mmu.stage2_tlb.misses            0                       # DTB misses
system.cpu.checker.istage2_mmu.stage2_tlb.accesses            0                       # DTB accesses
system.cpu.checker.itb.walker.walks              4825                       # Table walker walks requested
system.cpu.checker.itb.walker.walksShort         4825                       # Table walker walks initiated with short descriptors
system.cpu.checker.itb.walker.walkWaitTime::samples         4825                       # Table walker wait (enqueue to first request) latency
system.cpu.checker.itb.walker.walkWaitTime::0         4825    100.00%    100.00% # Table walker wait (enqueue to first request) latency
system.cpu.checker.itb.walker.walkWaitTime::total         4825                       # Table walker wait (enqueue to first request) latency
system.cpu.checker.itb.walker.walksPending::samples    375090000                       # Table walker pending requests distribution
system.cpu.checker.itb.walker.walksPending::0    375090000    100.00%    100.00% # Table walker pending requests distribution
system.cpu.checker.itb.walker.walksPending::total    375090000                       # Table walker pending requests distribution
system.cpu.checker.itb.walker.walkPageSizes::4K         2798     88.26%     88.26% # Table walker page sizes translated
system.cpu.checker.itb.walker.walkPageSizes::1M          372     11.74%    100.00% # Table walker page sizes translated
system.cpu.checker.itb.walker.walkPageSizes::total         3170                       # Table walker page sizes translated
system.cpu.checker.itb.walker.walkRequestOrigin_Requested::Data            0                       # Table walker requests started/completed, data/inst
system.cpu.checker.itb.walker.walkRequestOrigin_Requested::Inst         4825                       # Table walker requests started/completed, data/inst
system.cpu.checker.itb.walker.walkRequestOrigin_Requested::total         4825                       # Table walker requests started/completed, data/inst
system.cpu.checker.itb.walker.walkRequestOrigin_Completed::Data            0                       # Table walker requests started/completed, data/inst
system.cpu.checker.itb.walker.walkRequestOrigin_Completed::Inst         3170                       # Table walker requests started/completed, data/inst
system.cpu.checker.itb.walker.walkRequestOrigin_Completed::total         3170                       # Table walker requests started/completed, data/inst
system.cpu.checker.itb.walker.walkRequestOrigin::total         7995                       # Table walker requests started/completed, data/inst
system.cpu.checker.itb.inst_hits            115833137                       # ITB inst hits
system.cpu.checker.itb.inst_misses               4825                       # ITB inst misses
system.cpu.checker.itb.read_hits                    0                       # DTB read hits
system.cpu.checker.itb.read_misses                  0                       # DTB read misses
system.cpu.checker.itb.write_hits                   0                       # DTB write hits
system.cpu.checker.itb.write_misses                 0                       # DTB write misses
system.cpu.checker.itb.flush_tlb                  128                       # Number of times complete TLB was flushed
system.cpu.checker.itb.flush_tlb_mva             1834                       # Number of times TLB was flushed by MVA
system.cpu.checker.itb.flush_tlb_mva_asid            0                       # Number of times TLB was flushed by MVA & ASID
system.cpu.checker.itb.flush_tlb_asid               0                       # Number of times TLB was flushed by ASID
system.cpu.checker.itb.flush_entries             2976                       # Number of entries that have been flushed from TLB
system.cpu.checker.itb.align_faults                 0                       # Number of TLB faults due to alignment restrictions
system.cpu.checker.itb.prefetch_faults              0                       # Number of TLB faults due to prefetch
system.cpu.checker.itb.domain_faults                0                       # Number of TLB faults due to domain restrictions
system.cpu.checker.itb.perms_faults                 0                       # Number of TLB faults due to permissions restrictions
system.cpu.checker.itb.read_accesses                0                       # DTB read accesses
system.cpu.checker.itb.write_accesses               0                       # DTB write accesses
system.cpu.checker.itb.inst_accesses        115837962                       # ITB inst accesses
system.cpu.checker.itb.hits                 115833137                       # DTB hits
system.cpu.checker.itb.misses                    4825                       # DTB misses
system.cpu.checker.itb.accesses             115837962                       # DTB accesses
system.cpu.checker.numCycles                139072975                       # number of cpu cycles simulated
system.cpu.checker.numWorkItemsStarted              0                       # number of work items this cpu started
system.cpu.checker.numWorkItemsCompleted            0                       # number of work items this cpu completed
system.cpu.dstage2_mmu.stage2_tlb.walker.walks            0                       # Table walker walks requested
system.cpu.dstage2_mmu.stage2_tlb.walker.walkRequestOrigin_Requested::Data            0                       # Table walker requests started/completed, data/inst
system.cpu.dstage2_mmu.stage2_tlb.walker.walkRequestOrigin_Requested::Inst            0                       # Table walker requests started/completed, data/inst
system.cpu.dstage2_mmu.stage2_tlb.walker.walkRequestOrigin_Requested::total            0                       # Table walker requests started/completed, data/inst
system.cpu.dstage2_mmu.stage2_tlb.walker.walkRequestOrigin_Completed::Data            0                       # Table walker requests started/completed, data/inst
system.cpu.dstage2_mmu.stage2_tlb.walker.walkRequestOrigin_Completed::Inst            0                       # Table walker requests started/completed, data/inst
system.cpu.dstage2_mmu.stage2_tlb.walker.walkRequestOrigin_Completed::total            0                       # Table walker requests started/completed, data/inst
system.cpu.dstage2_mmu.stage2_tlb.walker.walkRequestOrigin::total            0                       # Table walker requests started/completed, data/inst
system.cpu.dstage2_mmu.stage2_tlb.inst_hits            0                       # ITB inst hits
system.cpu.dstage2_mmu.stage2_tlb.inst_misses            0                       # ITB inst misses
system.cpu.dstage2_mmu.stage2_tlb.read_hits            0                       # DTB read hits
system.cpu.dstage2_mmu.stage2_tlb.read_misses            0                       # DTB read misses
system.cpu.dstage2_mmu.stage2_tlb.write_hits            0                       # DTB write hits
system.cpu.dstage2_mmu.stage2_tlb.write_misses            0                       # DTB write misses
system.cpu.dstage2_mmu.stage2_tlb.flush_tlb            0                       # Number of times complete TLB was flushed
system.cpu.dstage2_mmu.stage2_tlb.flush_tlb_mva            0                       # Number of times TLB was flushed by MVA
system.cpu.dstage2_mmu.stage2_tlb.flush_tlb_mva_asid            0                       # Number of times TLB was flushed by MVA & ASID
system.cpu.dstage2_mmu.stage2_tlb.flush_tlb_asid            0                       # Number of times TLB was flushed by ASID
system.cpu.dstage2_mmu.stage2_tlb.flush_entries            0                       # Number of entries that have been flushed from TLB
system.cpu.dstage2_mmu.stage2_tlb.align_faults            0                       # Number of TLB faults due to alignment restrictions
system.cpu.dstage2_mmu.stage2_tlb.prefetch_faults            0                       # Number of TLB faults due to prefetch
system.cpu.dstage2_mmu.stage2_tlb.domain_faults            0                       # Number of TLB faults due to domain restrictions
system.cpu.dstage2_mmu.stage2_tlb.perms_faults            0                       # Number of TLB faults due to permissions restrictions
system.cpu.dstage2_mmu.stage2_tlb.read_accesses            0                       # DTB read accesses
system.cpu.dstage2_mmu.stage2_tlb.write_accesses            0                       # DTB write accesses
system.cpu.dstage2_mmu.stage2_tlb.inst_accesses            0                       # ITB inst accesses
system.cpu.dstage2_mmu.stage2_tlb.hits              0                       # DTB hits
system.cpu.dstage2_mmu.stage2_tlb.misses            0                       # DTB misses
system.cpu.dstage2_mmu.stage2_tlb.accesses            0                       # DTB accesses
system.cpu.dtb.walker.walks                     71741                       # Table walker walks requested
system.cpu.dtb.walker.walksShort                71741                       # Table walker walks initiated with short descriptors
system.cpu.dtb.walker.walksShortTerminationLevel::Level1        29467                       # Level at which table walker walks with short descriptors terminate
system.cpu.dtb.walker.walksShortTerminationLevel::Level2        22287                       # Level at which table walker walks with short descriptors terminate
system.cpu.dtb.walker.walksSquashedBefore        19987                       # Table walks squashed before starting
system.cpu.dtb.walker.walkWaitTime::samples        51754                       # Table walker wait (enqueue to first request) latency
system.cpu.dtb.walker.walkWaitTime::mean   426.227924                       # Table walker wait (enqueue to first request) latency
system.cpu.dtb.walker.walkWaitTime::stdev  2584.933278                       # Table walker wait (enqueue to first request) latency
system.cpu.dtb.walker.walkWaitTime::0-8191        50562     97.70%     97.70% # Table walker wait (enqueue to first request) latency
system.cpu.dtb.walker.walkWaitTime::8192-16383          857      1.66%     99.35% # Table walker wait (enqueue to first request) latency
system.cpu.dtb.walker.walkWaitTime::16384-24575          291      0.56%     99.91% # Table walker wait (enqueue to first request) latency
system.cpu.dtb.walker.walkWaitTime::24576-32767           20      0.04%     99.95% # Table walker wait (enqueue to first request) latency
system.cpu.dtb.walker.walkWaitTime::32768-40959           10      0.02%     99.97% # Table walker wait (enqueue to first request) latency
system.cpu.dtb.walker.walkWaitTime::40960-49151            9      0.02%     99.99% # Table walker wait (enqueue to first request) latency
system.cpu.dtb.walker.walkWaitTime::49152-57343            2      0.00%     99.99% # Table walker wait (enqueue to first request) latency
system.cpu.dtb.walker.walkWaitTime::65536-73727            1      0.00%    100.00% # Table walker wait (enqueue to first request) latency
system.cpu.dtb.walker.walkWaitTime::81920-90111            1      0.00%    100.00% # Table walker wait (enqueue to first request) latency
system.cpu.dtb.walker.walkWaitTime::90112-98303            1      0.00%    100.00% # Table walker wait (enqueue to first request) latency
system.cpu.dtb.walker.walkWaitTime::total        51754                       # Table walker wait (enqueue to first request) latency
system.cpu.dtb.walker.walkCompletionTime::samples        17702                       # Table walker service (enqueue to completion) latency
system.cpu.dtb.walker.walkCompletionTime::mean 12439.950288                       # Table walker service (enqueue to completion) latency
system.cpu.dtb.walker.walkCompletionTime::gmean  9865.120013                       # Table walker service (enqueue to completion) latency
system.cpu.dtb.walker.walkCompletionTime::stdev  8642.768996                       # Table walker service (enqueue to completion) latency
system.cpu.dtb.walker.walkCompletionTime::0-32767        17474     98.71%     98.71% # Table walker service (enqueue to completion) latency
system.cpu.dtb.walker.walkCompletionTime::32768-65535          221      1.25%     99.96% # Table walker service (enqueue to completion) latency
system.cpu.dtb.walker.walkCompletionTime::131072-163839            5      0.03%     99.99% # Table walker service (enqueue to completion) latency
system.cpu.dtb.walker.walkCompletionTime::163840-196607            1      0.01%     99.99% # Table walker service (enqueue to completion) latency
system.cpu.dtb.walker.walkCompletionTime::327680-360447            1      0.01%    100.00% # Table walker service (enqueue to completion) latency
system.cpu.dtb.walker.walkCompletionTime::total        17702                       # Table walker service (enqueue to completion) latency
system.cpu.dtb.walker.walksPending::samples 131083168816                       # Table walker pending requests distribution
system.cpu.dtb.walker.walksPending::mean     0.618031                       # Table walker pending requests distribution
system.cpu.dtb.walker.walksPending::stdev     0.493607                       # Table walker pending requests distribution
system.cpu.dtb.walker.walksPending::0-1  131025996816     99.96%     99.96% # Table walker pending requests distribution
system.cpu.dtb.walker.walksPending::2-3      38371000      0.03%     99.99% # Table walker pending requests distribution
system.cpu.dtb.walker.walksPending::4-5       7847500      0.01%     99.99% # Table walker pending requests distribution
system.cpu.dtb.walker.walksPending::6-7       6991500      0.01%    100.00% # Table walker pending requests distribution
system.cpu.dtb.walker.walksPending::8-9       1099000      0.00%    100.00% # Table walker pending requests distribution
system.cpu.dtb.walker.walksPending::10-11       491500      0.00%    100.00% # Table walker pending requests distribution
system.cpu.dtb.walker.walksPending::12-13      1479000      0.00%    100.00% # Table walker pending requests distribution
system.cpu.dtb.walker.walksPending::14-15       882500      0.00%    100.00% # Table walker pending requests distribution
system.cpu.dtb.walker.walksPending::16-17        10000      0.00%    100.00% # Table walker pending requests distribution
system.cpu.dtb.walker.walksPending::total 131083168816                       # Table walker pending requests distribution
system.cpu.dtb.walker.walkPageSizes::4K          6361     82.57%     82.57% # Table walker page sizes translated
system.cpu.dtb.walker.walkPageSizes::1M          1343     17.43%    100.00% # Table walker page sizes translated
system.cpu.dtb.walker.walkPageSizes::total         7704                       # Table walker page sizes translated
system.cpu.dtb.walker.walkRequestOrigin_Requested::Data        71741                       # Table walker requests started/completed, data/inst
system.cpu.dtb.walker.walkRequestOrigin_Requested::Inst            0                       # Table walker requests started/completed, data/inst
system.cpu.dtb.walker.walkRequestOrigin_Requested::total        71741                       # Table walker requests started/completed, data/inst
system.cpu.dtb.walker.walkRequestOrigin_Completed::Data         7704                       # Table walker requests started/completed, data/inst
system.cpu.dtb.walker.walkRequestOrigin_Completed::Inst            0                       # Table walker requests started/completed, data/inst
system.cpu.dtb.walker.walkRequestOrigin_Completed::total         7704                       # Table walker requests started/completed, data/inst
system.cpu.dtb.walker.walkRequestOrigin::total        79445                       # Table walker requests started/completed, data/inst
system.cpu.dtb.inst_hits                            0                       # ITB inst hits
system.cpu.dtb.inst_misses                          0                       # ITB inst misses
system.cpu.dtb.read_hits                     25458814                       # DTB read hits
system.cpu.dtb.read_misses                      61805                       # DTB read misses
system.cpu.dtb.write_hits                    19912938                       # DTB write hits
system.cpu.dtb.write_misses                      9936                       # DTB write misses
system.cpu.dtb.flush_tlb                          128                       # Number of times complete TLB was flushed
system.cpu.dtb.flush_tlb_mva                     1834                       # Number of times TLB was flushed by MVA
system.cpu.dtb.flush_tlb_mva_asid                   0                       # Number of times TLB was flushed by MVA & ASID
system.cpu.dtb.flush_tlb_asid                       0                       # Number of times TLB was flushed by ASID
system.cpu.dtb.flush_entries                     4319                       # Number of entries that have been flushed from TLB
system.cpu.dtb.align_faults                       361                       # Number of TLB faults due to alignment restrictions
system.cpu.dtb.prefetch_faults                   2196                       # Number of TLB faults due to prefetch
system.cpu.dtb.domain_faults                        0                       # Number of TLB faults due to domain restrictions
system.cpu.dtb.perms_faults                      1314                       # Number of TLB faults due to permissions restrictions
system.cpu.dtb.read_accesses                 25520619                       # DTB read accesses
system.cpu.dtb.write_accesses                19922874                       # DTB write accesses
system.cpu.dtb.inst_accesses                        0                       # ITB inst accesses
system.cpu.dtb.hits                          45371752                       # DTB hits
system.cpu.dtb.misses                           71741                       # DTB misses
system.cpu.dtb.accesses                      45443493                       # DTB accesses
system.cpu.istage2_mmu.stage2_tlb.walker.walks            0                       # Table walker walks requested
system.cpu.istage2_mmu.stage2_tlb.walker.walkRequestOrigin_Requested::Data            0                       # Table walker requests started/completed, data/inst
system.cpu.istage2_mmu.stage2_tlb.walker.walkRequestOrigin_Requested::Inst            0                       # Table walker requests started/completed, data/inst
system.cpu.istage2_mmu.stage2_tlb.walker.walkRequestOrigin_Requested::total            0                       # Table walker requests started/completed, data/inst
system.cpu.istage2_mmu.stage2_tlb.walker.walkRequestOrigin_Completed::Data            0                       # Table walker requests started/completed, data/inst
system.cpu.istage2_mmu.stage2_tlb.walker.walkRequestOrigin_Completed::Inst            0                       # Table walker requests started/completed, data/inst
system.cpu.istage2_mmu.stage2_tlb.walker.walkRequestOrigin_Completed::total            0                       # Table walker requests started/completed, data/inst
system.cpu.istage2_mmu.stage2_tlb.walker.walkRequestOrigin::total            0                       # Table walker requests started/completed, data/inst
system.cpu.istage2_mmu.stage2_tlb.inst_hits            0                       # ITB inst hits
system.cpu.istage2_mmu.stage2_tlb.inst_misses            0                       # ITB inst misses
system.cpu.istage2_mmu.stage2_tlb.read_hits            0                       # DTB read hits
system.cpu.istage2_mmu.stage2_tlb.read_misses            0                       # DTB read misses
system.cpu.istage2_mmu.stage2_tlb.write_hits            0                       # DTB write hits
system.cpu.istage2_mmu.stage2_tlb.write_misses            0                       # DTB write misses
system.cpu.istage2_mmu.stage2_tlb.flush_tlb            0                       # Number of times complete TLB was flushed
system.cpu.istage2_mmu.stage2_tlb.flush_tlb_mva            0                       # Number of times TLB was flushed by MVA
system.cpu.istage2_mmu.stage2_tlb.flush_tlb_mva_asid            0                       # Number of times TLB was flushed by MVA & ASID
system.cpu.istage2_mmu.stage2_tlb.flush_tlb_asid            0                       # Number of times TLB was flushed by ASID
system.cpu.istage2_mmu.stage2_tlb.flush_entries            0                       # Number of entries that have been flushed from TLB
system.cpu.istage2_mmu.stage2_tlb.align_faults            0                       # Number of TLB faults due to alignment restrictions
system.cpu.istage2_mmu.stage2_tlb.prefetch_faults            0                       # Number of TLB faults due to prefetch
system.cpu.istage2_mmu.stage2_tlb.domain_faults            0                       # Number of TLB faults due to domain restrictions
system.cpu.istage2_mmu.stage2_tlb.perms_faults            0                       # Number of TLB faults due to permissions restrictions
system.cpu.istage2_mmu.stage2_tlb.read_accesses            0                       # DTB read accesses
system.cpu.istage2_mmu.stage2_tlb.write_accesses            0                       # DTB write accesses
system.cpu.istage2_mmu.stage2_tlb.inst_accesses            0                       # ITB inst accesses
system.cpu.istage2_mmu.stage2_tlb.hits              0                       # DTB hits
system.cpu.istage2_mmu.stage2_tlb.misses            0                       # DTB misses
system.cpu.istage2_mmu.stage2_tlb.accesses            0                       # DTB accesses
system.cpu.itb.walker.walks                     11944                       # Table walker walks requested
system.cpu.itb.walker.walksShort                11944                       # Table walker walks initiated with short descriptors
system.cpu.itb.walker.walksShortTerminationLevel::Level1         3964                       # Level at which table walker walks with short descriptors terminate
system.cpu.itb.walker.walksShortTerminationLevel::Level2         7740                       # Level at which table walker walks with short descriptors terminate
system.cpu.itb.walker.walksSquashedBefore          240                       # Table walks squashed before starting
system.cpu.itb.walker.walkWaitTime::samples        11704                       # Table walker wait (enqueue to first request) latency
system.cpu.itb.walker.walkWaitTime::mean   651.102187                       # Table walker wait (enqueue to first request) latency
system.cpu.itb.walker.walkWaitTime::stdev  2927.030280                       # Table walker wait (enqueue to first request) latency
system.cpu.itb.walker.walkWaitTime::0-4095        11135     95.14%     95.14% # Table walker wait (enqueue to first request) latency
system.cpu.itb.walker.walkWaitTime::4096-8191          148      1.26%     96.40% # Table walker wait (enqueue to first request) latency
system.cpu.itb.walker.walkWaitTime::8192-12287          183      1.56%     97.97% # Table walker wait (enqueue to first request) latency
system.cpu.itb.walker.walkWaitTime::12288-16383           77      0.66%     98.62% # Table walker wait (enqueue to first request) latency
system.cpu.itb.walker.walkWaitTime::16384-20479          110      0.94%     99.56% # Table walker wait (enqueue to first request) latency
system.cpu.itb.walker.walkWaitTime::20480-24575           40      0.34%     99.91% # Table walker wait (enqueue to first request) latency
system.cpu.itb.walker.walkWaitTime::24576-28671            2      0.02%     99.92% # Table walker wait (enqueue to first request) latency
system.cpu.itb.walker.walkWaitTime::28672-32767            6      0.05%     99.97% # Table walker wait (enqueue to first request) latency
system.cpu.itb.walker.walkWaitTime::32768-36863            1      0.01%     99.98% # Table walker wait (enqueue to first request) latency
system.cpu.itb.walker.walkWaitTime::36864-40959            1      0.01%     99.99% # Table walker wait (enqueue to first request) latency
system.cpu.itb.walker.walkWaitTime::40960-45055            1      0.01%    100.00% # Table walker wait (enqueue to first request) latency
system.cpu.itb.walker.walkWaitTime::total        11704                       # Table walker wait (enqueue to first request) latency
system.cpu.itb.walker.walkCompletionTime::samples         3569                       # Table walker service (enqueue to completion) latency
system.cpu.itb.walker.walkCompletionTime::mean 13485.850378                       # Table walker service (enqueue to completion) latency
system.cpu.itb.walker.walkCompletionTime::gmean 10973.901987                       # Table walker service (enqueue to completion) latency
system.cpu.itb.walker.walkCompletionTime::stdev  8473.200886                       # Table walker service (enqueue to completion) latency
system.cpu.itb.walker.walkCompletionTime::0-16383         2612     73.19%     73.19% # Table walker service (enqueue to completion) latency
system.cpu.itb.walker.walkCompletionTime::16384-32767          916     25.67%     98.85% # Table walker service (enqueue to completion) latency
system.cpu.itb.walker.walkCompletionTime::32768-49151           38      1.06%     99.92% # Table walker service (enqueue to completion) latency
system.cpu.itb.walker.walkCompletionTime::131072-147455            3      0.08%    100.00% # Table walker service (enqueue to completion) latency
system.cpu.itb.walker.walkCompletionTime::total         3569                       # Table walker service (enqueue to completion) latency
system.cpu.itb.walker.walksPending::samples  23708925416                       # Table walker pending requests distribution
system.cpu.itb.walker.walksPending::mean     0.962784                       # Table walker pending requests distribution
system.cpu.itb.walker.walksPending::stdev     0.189405                       # Table walker pending requests distribution
system.cpu.itb.walker.walksPending::0       882867000      3.72%      3.72% # Table walker pending requests distribution
system.cpu.itb.walker.walksPending::1     22825544916     96.27%    100.00% # Table walker pending requests distribution
system.cpu.itb.walker.walksPending::2          513500      0.00%    100.00% # Table walker pending requests distribution
system.cpu.itb.walker.walksPending::total  23708925416                       # Table walker pending requests distribution
system.cpu.itb.walker.walkPageSizes::4K          3010     90.42%     90.42% # Table walker page sizes translated
system.cpu.itb.walker.walkPageSizes::1M           319      9.58%    100.00% # Table walker page sizes translated
system.cpu.itb.walker.walkPageSizes::total         3329                       # Table walker page sizes translated
system.cpu.itb.walker.walkRequestOrigin_Requested::Data            0                       # Table walker requests started/completed, data/inst
system.cpu.itb.walker.walkRequestOrigin_Requested::Inst        11944                       # Table walker requests started/completed, data/inst
system.cpu.itb.walker.walkRequestOrigin_Requested::total        11944                       # Table walker requests started/completed, data/inst
system.cpu.itb.walker.walkRequestOrigin_Completed::Data            0                       # Table walker requests started/completed, data/inst
system.cpu.itb.walker.walkRequestOrigin_Completed::Inst         3329                       # Table walker requests started/completed, data/inst
[...]
system.iocache.demand_miss_latency::total     28159877                       # number of demand (read+write) miss cycles
system.iocache.overall_miss_latency::realview.ide     28159877                       # number of overall miss cycles
system.iocache.overall_miss_latency::total     28159877                       # number of overall miss cycles
system.iocache.ReadReq_accesses::realview.ide          223                       # number of ReadReq accesses(hits+misses)
system.iocache.ReadReq_accesses::total            223                       # number of ReadReq accesses(hits+misses)
system.iocache.WriteLineReq_accesses::realview.ide        36224                       # number of WriteLineReq accesses(hits+misses)
system.iocache.WriteLineReq_accesses::total        36224                       # number of WriteLineReq accesses(hits+misses)
system.iocache.demand_accesses::realview.ide          223                       # number of demand (read+write) accesses
system.iocache.demand_accesses::total             223                       # number of demand (read+write) accesses
system.iocache.overall_accesses::realview.ide          223                       # number of overall (read+write) accesses
system.iocache.overall_accesses::total            223                       # number of overall (read+write) accesses
system.iocache.ReadReq_miss_rate::realview.ide            1                       # miss rate for ReadReq accesses
system.iocache.ReadReq_miss_rate::total             1                       # miss rate for ReadReq accesses
system.iocache.WriteLineReq_miss_rate::realview.ide            1                       # miss rate for WriteLineReq accesses
system.iocache.WriteLineReq_miss_rate::total            1                       # miss rate for WriteLineReq accesses
system.iocache.demand_miss_rate::realview.ide            1                       # miss rate for demand accesses
system.iocache.demand_miss_rate::total              1                       # miss rate for demand accesses
system.iocache.overall_miss_rate::realview.ide            1                       # miss rate for overall accesses
system.iocache.overall_miss_rate::total             1                       # miss rate for overall accesses
system.iocache.ReadReq_avg_miss_latency::realview.ide 126277.475336                       # average ReadReq miss latency
system.iocache.ReadReq_avg_miss_latency::total 126277.475336                       # average ReadReq miss latency
system.iocache.WriteLineReq_avg_miss_latency::realview.ide 129680.105676                       # average WriteLineReq miss latency
system.iocache.WriteLineReq_avg_miss_latency::total 129680.105676                       # average WriteLineReq miss latency
system.iocache.demand_avg_miss_latency::realview.ide 126277.475336                       # average overall miss latency
system.iocache.demand_avg_miss_latency::total 126277.475336                       # average overall miss latency
system.iocache.overall_avg_miss_latency::realview.ide 126277.475336                       # average overall miss latency
system.iocache.overall_avg_miss_latency::total 126277.475336                       # average overall miss latency
system.iocache.blocked_cycles::no_mshrs             0                       # number of cycles access was blocked
system.iocache.blocked_cycles::no_targets            0                       # number of cycles access was blocked
system.iocache.blocked::no_mshrs                    0                       # number of cycles access was blocked
system.iocache.blocked::no_targets                  0                       # number of cycles access was blocked
system.iocache.avg_blocked_cycles::no_mshrs          nan                       # average number of cycles each access was blocked
system.iocache.avg_blocked_cycles::no_targets          nan                       # average number of cycles each access was blocked
system.iocache.fast_writes                          0                       # number of fast writes performed
system.iocache.cache_copies                         0                       # number of cache copies performed
system.iocache.writebacks::writebacks           36190                       # number of writebacks
system.iocache.writebacks::total                36190                       # number of writebacks
system.iocache.ReadReq_mshr_misses::realview.ide          223                       # number of ReadReq MSHR misses
system.iocache.ReadReq_mshr_misses::total          223                       # number of ReadReq MSHR misses
system.iocache.WriteLineReq_mshr_misses::realview.ide        36224                       # number of WriteLineReq MSHR misses
system.iocache.WriteLineReq_mshr_misses::total        36224                       # number of WriteLineReq MSHR misses
system.iocache.demand_mshr_misses::realview.ide          223                       # number of demand (read+write) MSHR misses
system.iocache.demand_mshr_misses::total          223                       # number of demand (read+write) MSHR misses
system.iocache.overall_mshr_misses::realview.ide          223                       # number of overall MSHR misses
system.iocache.overall_mshr_misses::total          223                       # number of overall MSHR misses
system.iocache.ReadReq_mshr_miss_latency::realview.ide     17009877                       # number of ReadReq MSHR miss cycles
system.iocache.ReadReq_mshr_miss_latency::total     17009877                       # number of ReadReq MSHR miss cycles
system.iocache.WriteLineReq_mshr_miss_latency::realview.ide   2886332148                       # number of WriteLineReq MSHR miss cycles
system.iocache.WriteLineReq_mshr_miss_latency::total   2886332148                       # number of WriteLineReq MSHR miss cycles
system.iocache.demand_mshr_miss_latency::realview.ide     17009877                       # number of demand (read+write) MSHR miss cycles
system.iocache.demand_mshr_miss_latency::total     17009877                       # number of demand (read+write) MSHR miss cycles
system.iocache.overall_mshr_miss_latency::realview.ide     17009877                       # number of overall MSHR miss cycles
system.iocache.overall_mshr_miss_latency::total     17009877                       # number of overall MSHR miss cycles
system.iocache.ReadReq_mshr_miss_rate::realview.ide            1                       # mshr miss rate for ReadReq accesses
system.iocache.ReadReq_mshr_miss_rate::total            1                       # mshr miss rate for ReadReq accesses
system.iocache.WriteLineReq_mshr_miss_rate::realview.ide            1                       # mshr miss rate for WriteLineReq accesses
system.iocache.WriteLineReq_mshr_miss_rate::total            1                       # mshr miss rate for WriteLineReq accesses
system.iocache.demand_mshr_miss_rate::realview.ide            1                       # mshr miss rate for demand accesses
system.iocache.demand_mshr_miss_rate::total            1                       # mshr miss rate for demand accesses
system.iocache.overall_mshr_miss_rate::realview.ide            1                       # mshr miss rate for overall accesses
system.iocache.overall_mshr_miss_rate::total            1                       # mshr miss rate for overall accesses
system.iocache.ReadReq_avg_mshr_miss_latency::realview.ide 76277.475336                       # average ReadReq mshr miss latency
system.iocache.ReadReq_avg_mshr_miss_latency::total 76277.475336                       # average ReadReq mshr miss latency
system.iocache.WriteLineReq_avg_mshr_miss_latency::realview.ide 79680.105676                       # average WriteLineReq mshr miss latency
system.iocache.WriteLineReq_avg_mshr_miss_latency::total 79680.105676                       # average WriteLineReq mshr miss latency
system.iocache.demand_avg_mshr_miss_latency::realview.ide 76277.475336                       # average overall mshr miss latency
system.iocache.demand_avg_mshr_miss_latency::total 76277.475336                       # average overall mshr miss latency
system.iocache.overall_avg_mshr_miss_latency::realview.ide 76277.475336                       # average overall mshr miss latency
system.iocache.overall_avg_mshr_miss_latency::total 76277.475336                       # average overall mshr miss latency
system.iocache.no_allocate_misses                   0                       # Number of misses that were no-allocate
system.membus.trans_dist::ReadReq               34133                       # Transaction distribution
system.membus.trans_dist::ReadResp              67584                       # Transaction distribution
system.membus.trans_dist::WriteReq              27585                       # Transaction distribution
system.membus.trans_dist::WriteResp             27585                       # Transaction distribution
system.membus.trans_dist::Writeback            125417                       # Transaction distribution
system.membus.trans_dist::CleanEvict             7628                       # Transaction distribution
system.membus.trans_dist::UpgradeReq             4571                       # Transaction distribution
system.membus.trans_dist::SCUpgradeReq              3                       # Transaction distribution
system.membus.trans_dist::UpgradeResp            4574                       # Transaction distribution
system.membus.trans_dist::ReadExReq            133608                       # Transaction distribution
system.membus.trans_dist::ReadExResp           133608                       # Transaction distribution
system.membus.trans_dist::ReadSharedReq         33452                       # Transaction distribution
system.membus.trans_dist::InvalidateReq         36224                       # Transaction distribution
system.membus.trans_dist::InvalidateResp        36224                       # Transaction distribution
system.membus.pkt_count_system.cpu.l2cache.mem_side::system.bridge.slave       105478                       # Packet count per connected master and slave (bytes)
system.membus.pkt_count_system.cpu.l2cache.mem_side::system.realview.nvmem.port           16                       # Packet count per connected master and slave (bytes)
system.membus.pkt_count_system.cpu.l2cache.mem_side::system.realview.gic.pio         2076                       # Packet count per connected master and slave (bytes)
system.membus.pkt_count_system.cpu.l2cache.mem_side::system.physmem.port       455251                       # Packet count per connected master and slave (bytes)
system.membus.pkt_count_system.cpu.l2cache.mem_side::total       562821                       # Packet count per connected master and slave (bytes)
system.membus.pkt_count_system.iocache.mem_side::system.physmem.port       108888                       # Packet count per connected master and slave (bytes)
system.membus.pkt_count_system.iocache.mem_side::total       108888                       # Packet count per connected master and slave (bytes)
system.membus.pkt_count::total                 671709                       # Packet count per connected master and slave (bytes)
system.membus.pkt_size_system.cpu.l2cache.mem_side::system.bridge.slave       159125                       # Cumulative packet size per connected master and slave (bytes)
system.membus.pkt_size_system.cpu.l2cache.mem_side::system.realview.nvmem.port          128                       # Cumulative packet size per connected master and slave (bytes)
system.membus.pkt_size_system.cpu.l2cache.mem_side::system.realview.gic.pio         4152                       # Cumulative packet size per connected master and slave (bytes)
system.membus.pkt_size_system.cpu.l2cache.mem_side::system.physmem.port     16438044                       # Cumulative packet size per connected master and slave (bytes)
system.membus.pkt_size_system.cpu.l2cache.mem_side::total     16601449                       # Cumulative packet size per connected master and slave (bytes)
system.membus.pkt_size_system.iocache.mem_side::system.physmem.port      2317120                       # Cumulative packet size per connected master and slave (bytes)
system.membus.pkt_size_system.iocache.mem_side::total      2317120                       # Cumulative packet size per connected master and slave (bytes)
system.membus.pkt_size::total                18918569                       # Cumulative packet size per connected master and slave (bytes)
system.membus.snoops                              487                       # Total snoops (count)
system.membus.snoop_fanout::samples            402837                       # Request fanout histogram
system.membus.snoop_fanout::mean                    1                       # Request fanout histogram
system.membus.snoop_fanout::stdev                   0                       # Request fanout histogram
system.membus.snoop_fanout::underflows              0      0.00%      0.00% # Request fanout histogram
system.membus.snoop_fanout::0                       0      0.00%      0.00% # Request fanout histogram
system.membus.snoop_fanout::1                  402837    100.00%    100.00% # Request fanout histogram
system.membus.snoop_fanout::2                       0      0.00%    100.00% # Request fanout histogram
system.membus.snoop_fanout::overflows               0      0.00%    100.00% # Request fanout histogram
system.membus.snoop_fanout::min_value               1                       # Request fanout histogram
system.membus.snoop_fanout::max_value               1                       # Request fanout histogram
system.membus.snoop_fanout::total              402837                       # Request fanout histogram
system.membus.reqLayer0.occupancy            83606500                       # Layer occupancy (ticks)
system.membus.reqLayer0.utilization               0.0                       # Layer utilization (%)
system.membus.reqLayer1.occupancy               10000                       # Layer occupancy (ticks)
system.membus.reqLayer1.utilization               0.0                       # Layer utilization (%)
system.membus.reqLayer2.occupancy             1745500                       # Layer occupancy (ticks)
system.membus.reqLayer2.utilization               0.0                       # Layer utilization (%)
system.membus.reqLayer5.occupancy           875905157                       # Layer occupancy (ticks)
system.membus.reqLayer5.utilization               0.0                       # Layer utilization (%)
system.membus.respLayer2.occupancy          988369672                       # Layer occupancy (ticks)
system.membus.respLayer2.utilization              0.0                       # Layer utilization (%)
system.membus.respLayer3.occupancy           64470242                       # Layer occupancy (ticks)
system.membus.respLayer3.utilization              0.0                       # Layer utilization (%)
system.realview.ethernet.descDMAReads               0                       # Number of descriptors the device read w/ DMA
system.realview.ethernet.descDMAWrites              0                       # Number of descriptors the device wrote w/ DMA
system.realview.ethernet.descDmaReadBytes            0                       # number of descriptor bytes read w/ DMA
system.realview.ethernet.descDmaWriteBytes            0                       # number of descriptor bytes write w/ DMA
system.realview.ethernet.postedSwi                  0                       # number of software interrupts posted to CPU
system.realview.ethernet.coalescedSwi             nan                       # average number of Swi's coalesced into each post
system.realview.ethernet.totalSwi                   0                       # total number of Swi written to ISR
system.realview.ethernet.postedRxIdle               0                       # number of rxIdle interrupts posted to CPU
system.realview.ethernet.coalescedRxIdle          nan                       # average number of RxIdle's coalesced into each post
system.realview.ethernet.totalRxIdle                0                       # total number of RxIdle written to ISR
system.realview.ethernet.postedRxOk                 0                       # number of RxOk interrupts posted to CPU
system.realview.ethernet.coalescedRxOk            nan                       # average number of RxOk's coalesced into each post
system.realview.ethernet.totalRxOk                  0                       # total number of RxOk written to ISR
system.realview.ethernet.postedRxDesc               0                       # number of RxDesc interrupts posted to CPU
system.realview.ethernet.coalescedRxDesc          nan                       # average number of RxDesc's coalesced into each post
system.realview.ethernet.totalRxDesc                0                       # total number of RxDesc written to ISR
system.realview.ethernet.postedTxOk                 0                       # number of TxOk interrupts posted to CPU
system.realview.ethernet.coalescedTxOk            nan                       # average number of TxOk's coalesced into each post
system.realview.ethernet.totalTxOk                  0                       # total number of TxOk written to ISR
system.realview.ethernet.postedTxIdle               0                       # number of TxIdle interrupts posted to CPU
system.realview.ethernet.coalescedTxIdle          nan                       # average number of TxIdle's coalesced into each post
system.realview.ethernet.totalTxIdle                0                       # total number of TxIdle written to ISR
system.realview.ethernet.postedTxDesc               0                       # number of TxDesc interrupts posted to CPU
system.realview.ethernet.coalescedTxDesc          nan                       # average number of TxDesc's coalesced into each post
system.realview.ethernet.totalTxDesc                0                       # total number of TxDesc written to ISR
system.realview.ethernet.postedRxOrn                0                       # number of RxOrn posted to CPU
system.realview.ethernet.coalescedRxOrn           nan                       # average number of RxOrn's coalesced into each post
system.realview.ethernet.totalRxOrn                 0                       # total number of RxOrn written to ISR
system.realview.ethernet.coalescedTotal           nan                       # average number of interrupts coalesced into each post
system.realview.ethernet.postedInterrupts            0                       # number of posts to CPU
system.realview.ethernet.droppedPackets             0                       # number of packets dropped
system.realview.realview_io.osc_pxl.clock        42105                       # Clock period in ticks
system.realview.realview_io.osc_clcd.clock        42105                       # Clock period in ticks
system.realview.realview_io.osc_cpu.clock        16667                       # Clock period in ticks
system.realview.realview_io.osc_ddr.clock        25000                       # Clock period in ticks
system.realview.realview_io.osc_hsbm.clock        25000                       # Clock period in ticks
system.realview.realview_io.osc_mcc.clock        20000                       # Clock period in ticks
system.realview.realview_io.osc_peripheral.clock        41667                       # Clock period in ticks
system.realview.realview_io.osc_smb.clock        20000                       # Clock period in ticks
system.realview.realview_io.osc_sys.clock        16667                       # Clock period in ticks
system.realview.realview_io.osc_system_bus.clock        41667                       # Clock period in ticks
system.cpu.kern.inst.arm                            0                       # number of arm instructions executed
system.cpu.kern.inst.quiesce                     3037                       # number of quiesce instructions executed

---------- End Simulation Statistics   ----------
