
---------- Begin Simulation Statistics ----------
sim_seconds                                  2.827853                       # Number of seconds simulated
sim_ticks                                2827853096000                       # Number of ticks simulated
final_tick                               2827853096000                       # Number of ticks from beginning of simulation (restored from checkpoints and never reset)
sim_freq                                 1000000000000                       # Frequency of simulated ticks
host_inst_rate                                  94322                       # Simulator instruction rate (inst/s)
host_op_rate                                   114411                       # Simulator op (including micro ops) rate (op/s)
host_tick_rate                             2357194570                       # Simulator tick rate (ticks/s)
host_mem_usage                                 589152                       # Number of bytes of host memory used
host_seconds                                  1199.67                       # Real time elapsed on the host
sim_insts                                   113155640                       # Number of instructions simulated
sim_ops                                     137255479                       # Number of ops (including micro ops) simulated
system.voltage_domain.voltage                       1                       # Voltage in Volts
system.clk_domain.clock                          1000                       # Clock period in ticks
system.physmem.pwrStateResidencyTicks::UNDEFINED 2827853096000                       # Cumulative time (in ticks) in various power states
system.physmem.bytes_read::cpu.dtb.walker         1024                       # Number of bytes read from this memory
system.physmem.bytes_read::cpu.itb.walker          384                       # Number of bytes read from this memory
system.physmem.bytes_read::cpu.inst           1322240                       # Number of bytes read from this memory
system.physmem.bytes_read::cpu.data           9790440                       # Number of bytes read from this memory
system.physmem.bytes_read::realview.ide           960                       # Number of bytes read from this memory
system.physmem.bytes_read::total             11115048                       # Number of bytes read from this memory
system.physmem.bytes_inst_read::cpu.inst      1322240                       # Number of instructions bytes read from this memory
system.physmem.bytes_inst_read::total         1322240                       # Number of instructions bytes read from this memory
system.physmem.bytes_written::writebacks      8407168                       # Number of bytes written to this memory
system.physmem.bytes_written::cpu.data          17524                       # Number of bytes written to this memory
system.physmem.bytes_written::total           8424692                       # Number of bytes written to this memory
system.physmem.num_reads::cpu.dtb.walker           16                       # Number of read requests responded to by this memory
system.physmem.num_reads::cpu.itb.walker            6                       # Number of read requests responded to by this memory
system.physmem.num_reads::cpu.inst              22907                       # Number of read requests responded to by this memory
system.physmem.num_reads::cpu.data             153496                       # Number of read requests responded to by this memory
system.physmem.num_reads::realview.ide             15                       # Number of read requests responded to by this memory
system.physmem.num_reads::total                176440                       # Number of read requests responded to by this memory
system.physmem.num_writes::writebacks          131362                       # Number of write requests responded to by this memory
system.physmem.num_writes::cpu.data              4381                       # Number of write requests responded to by this memory
system.physmem.num_writes::total               135743                       # Number of write requests responded to by this memory
system.physmem.bw_read::cpu.dtb.walker            362                       # Total read bandwidth from this memory (bytes/s)
system.physmem.bw_read::cpu.itb.walker            136                       # Total read bandwidth from this memory (bytes/s)
system.physmem.bw_read::cpu.inst               467577                       # Total read bandwidth from this memory (bytes/s)
system.physmem.bw_read::cpu.data              3462146                       # Total read bandwidth from this memory (bytes/s)
system.physmem.bw_read::realview.ide              339                       # Total read bandwidth from this memory (bytes/s)
system.physmem.bw_read::total                 3930561                       # Total read bandwidth from this memory (bytes/s)
system.physmem.bw_inst_read::cpu.inst          467577                       # Instruction read bandwidth from this memory (bytes/s)
system.physmem.bw_inst_read::total             467577                       # Instruction read bandwidth from this memory (bytes/s)
system.physmem.bw_write::writebacks           2972986                       # Write bandwidth from this memory (bytes/s)
system.physmem.bw_write::cpu.data                6197                       # Write bandwidth from this memory (bytes/s)
system.physmem.bw_write::total                2979183                       # Write bandwidth from this memory (bytes/s)
system.physmem.bw_total::writebacks           2972986                       # Total bandwidth to/from this memory (bytes/s)
system.physmem.bw_total::cpu.dtb.walker           362                       # Total bandwidth to/from this memory (bytes/s)
system.physmem.bw_total::cpu.itb.walker           136                       # Total bandwidth to/from this memory (bytes/s)
system.physmem.bw_total::cpu.inst              467577                       # Total bandwidth to/from this memory (bytes/s)
system.physmem.bw_total::cpu.data             3468343                       # Total bandwidth to/from this memory (bytes/s)
system.physmem.bw_total::realview.ide             339                       # Total bandwidth to/from this memory (bytes/s)
system.physmem.bw_total::total                6909744                       # Total bandwidth to/from this memory (bytes/s)
system.physmem.readReqs                        176441                       # Number of read requests accepted
system.physmem.writeReqs                       135743                       # Number of write requests accepted
system.physmem.readBursts                      176441                       # Number of DRAM read bursts, including those serviced by the write queue
system.physmem.writeBursts                     135743                       # Number of DRAM write bursts, including those merged in the write queue
system.physmem.bytesReadDRAM                 11282432                       # Total number of bytes read from DRAM
system.physmem.bytesReadWrQ                      9792                       # Total number of bytes read from write queue
system.physmem.bytesWritten                   8437824                       # Total number of bytes written to DRAM
system.physmem.bytesReadSys                  11115112                       # Total read bytes from the system interface side
system.physmem.bytesWrittenSys                8424692                       # Total written bytes from the system interface side
system.physmem.servicedByWrQ                      153                       # Number of DRAM read bursts serviced by the write queue
system.physmem.mergedWrBursts                    3886                       # Number of DRAM write bursts merged with an existing one
system.physmem.neitherReadNorWriteReqs              0                       # Number of requests that are neither read nor write
system.physmem.perBankRdBursts::0               11743                       # Per bank write bursts
system.physmem.perBankRdBursts::1               11227                       # Per bank write bursts
system.physmem.perBankRdBursts::2               11041                       # Per bank write bursts
system.physmem.perBankRdBursts::3               10652                       # Per bank write bursts
system.physmem.perBankRdBursts::4               13485                       # Per bank write bursts
system.physmem.perBankRdBursts::5               11002                       # Per bank write bursts
system.physmem.perBankRdBursts::6               11432                       # Per bank write bursts
system.physmem.perBankRdBursts::7               11844                       # Per bank write bursts
system.physmem.perBankRdBursts::8               10383                       # Per bank write bursts
system.physmem.perBankRdBursts::9               10947                       # Per bank write bursts
system.physmem.perBankRdBursts::10              10471                       # Per bank write bursts
system.physmem.perBankRdBursts::11               9569                       # Per bank write bursts
system.physmem.perBankRdBursts::12              10361                       # Per bank write bursts
system.physmem.perBankRdBursts::13              11110                       # Per bank write bursts
system.physmem.perBankRdBursts::14              10361                       # Per bank write bursts
system.physmem.perBankRdBursts::15              10660                       # Per bank write bursts
system.physmem.perBankWrBursts::0                8764                       # Per bank write bursts
system.physmem.perBankWrBursts::1                8604                       # Per bank write bursts
system.physmem.perBankWrBursts::2                8676                       # Per bank write bursts
system.physmem.perBankWrBursts::3                8310                       # Per bank write bursts
system.physmem.perBankWrBursts::4                8074                       # Per bank write bursts
system.physmem.perBankWrBursts::5                8230                       # Per bank write bursts
system.physmem.perBankWrBursts::6                8228                       # Per bank write bursts
system.physmem.perBankWrBursts::7                8800                       # Per bank write bursts
system.physmem.perBankWrBursts::8                7938                       # Per bank write bursts
system.physmem.perBankWrBursts::9                8472                       # Per bank write bursts
system.physmem.perBankWrBursts::10               8080                       # Per bank write bursts
system.physmem.perBankWrBursts::11               7388                       # Per bank write bursts
system.physmem.perBankWrBursts::12               8035                       # Per bank write bursts
system.physmem.perBankWrBursts::13               8487                       # Per bank write bursts
system.physmem.perBankWrBursts::14               7854                       # Per bank write bursts
system.physmem.perBankWrBursts::15               7901                       # Per bank write bursts
system.physmem.numRdRetry                           0                       # Number of times read queue was full causing retry
system.physmem.numWrRetry                           4                       # Number of times write queue was full causing retry
system.physmem.totGap                    2827852861000                       # Total gap between requests
system.physmem.readPktSize::0                       0                       # Read request sizes (log2)
system.physmem.readPktSize::1                       0                       # Read request sizes (log2)
system.physmem.readPktSize::2                     542                       # Read request sizes (log2)
system.physmem.readPktSize::3                      14                       # Read request sizes (log2)
system.physmem.readPktSize::4                    2996                       # Read request sizes (log2)
system.physmem.readPktSize::5                       0                       # Read request sizes (log2)
system.physmem.readPktSize::6                  172889                       # Read request sizes (log2)
system.physmem.writePktSize::0                      0                       # Write request sizes (log2)
system.physmem.writePktSize::1                      0                       # Write request sizes (log2)
system.physmem.writePktSize::2                   4381                       # Write request sizes (log2)
system.physmem.writePktSize::3                      0                       # Write request sizes (log2)
system.physmem.writePktSize::4                      0                       # Write request sizes (log2)
system.physmem.writePktSize::5                      0                       # Write request sizes (log2)
system.physmem.writePktSize::6                 131362                       # Write request sizes (log2)
system.physmem.rdQLenPdf::0                    155219                       # What read queue length does an incoming req see
system.physmem.rdQLenPdf::1                     17999                       # What read queue length does an incoming req see
system.physmem.rdQLenPdf::2                      2225                       # What read queue length does an incoming req see
system.physmem.rdQLenPdf::3                       829                       # What read queue length does an incoming req see
system.physmem.rdQLenPdf::4                         6                       # What read queue length does an incoming req see
system.physmem.rdQLenPdf::5                         1                       # What read queue length does an incoming req see
system.physmem.rdQLenPdf::6                         1                       # What read queue length does an incoming req see
system.physmem.rdQLenPdf::7                         1                       # What read queue length does an incoming req see
system.physmem.rdQLenPdf::8                         1                       # What read queue length does an incoming req see
system.physmem.rdQLenPdf::9                         1                       # What read queue length does an incoming req see
system.physmem.rdQLenPdf::10                        1                       # What read queue length does an incoming req see
system.physmem.rdQLenPdf::11                        1                       # What read queue length does an incoming req see
system.physmem.rdQLenPdf::12                        1                       # What read queue length does an incoming req see
system.physmem.rdQLenPdf::13                        1                       # What read queue length does an incoming req see
system.physmem.rdQLenPdf::14                        1                       # What read queue length does an incoming req see
system.physmem.rdQLenPdf::15                        0                       # What read queue length does an incoming req see
system.physmem.rdQLenPdf::16                        0                       # What read queue length does an incoming req see
system.physmem.rdQLenPdf::17                        0                       # What read queue length does an incoming req see
system.physmem.rdQLenPdf::18                        0                       # What read queue length does an incoming req see
system.physmem.rdQLenPdf::19                        0                       # What read queue length does an incoming req see
system.physmem.rdQLenPdf::20                        0                       # What read queue length does an incoming req see
system.physmem.rdQLenPdf::21                        0                       # What read queue length does an incoming req see
system.physmem.rdQLenPdf::22                        0                       # What read queue length does an incoming req see
system.physmem.rdQLenPdf::23                        0                       # What read queue length does an incoming req see
system.physmem.rdQLenPdf::24                        0                       # What read queue length does an incoming req see
system.physmem.rdQLenPdf::25                        0                       # What read queue length does an incoming req see
system.physmem.rdQLenPdf::26                        0                       # What read queue length does an incoming req see
system.physmem.rdQLenPdf::27                        0                       # What read queue length does an incoming req see
system.physmem.rdQLenPdf::28                        0                       # What read queue length does an incoming req see
system.physmem.rdQLenPdf::29                        0                       # What read queue length does an incoming req see
system.physmem.rdQLenPdf::30                        0                       # What read queue length does an incoming req see
system.physmem.rdQLenPdf::31                        0                       # What read queue length does an incoming req see
system.physmem.wrQLenPdf::0                         1                       # What write queue length does an incoming req see
system.physmem.wrQLenPdf::1                         1                       # What write queue length does an incoming req see
system.physmem.wrQLenPdf::2                         1                       # What write queue length does an incoming req see
system.physmem.wrQLenPdf::3                         1                       # What write queue length does an incoming req see
system.physmem.wrQLenPdf::4                         1                       # What write queue length does an incoming req see
system.physmem.wrQLenPdf::5                         1                       # What write queue length does an incoming req see
system.physmem.wrQLenPdf::6                         1                       # What write queue length does an incoming req see
system.physmem.wrQLenPdf::7                         1                       # What write queue length does an incoming req see
system.physmem.wrQLenPdf::8                         1                       # What write queue length does an incoming req see
system.physmem.wrQLenPdf::9                         1                       # What write queue length does an incoming req see
system.physmem.wrQLenPdf::10                        1                       # What write queue length does an incoming req see
system.physmem.wrQLenPdf::11                        1                       # What write queue length does an incoming req see
system.physmem.wrQLenPdf::12                        1                       # What write queue length does an incoming req see
system.physmem.wrQLenPdf::13                        1                       # What write queue length does an incoming req see
system.physmem.wrQLenPdf::14                        1                       # What write queue length does an incoming req see
system.physmem.wrQLenPdf::15                     2095                       # What write queue length does an incoming req see
system.physmem.wrQLenPdf::16                     2964                       # What write queue length does an incoming req see
system.physmem.wrQLenPdf::17                     5951                       # What write queue length does an incoming req see
system.physmem.wrQLenPdf::18                     6509                       # What write queue length does an incoming req see
system.physmem.wrQLenPdf::19                     6942                       # What write queue length does an incoming req see
system.physmem.wrQLenPdf::20                     6801                       # What write queue length does an incoming req see
system.physmem.wrQLenPdf::21                     7294                       # What write queue length does an incoming req see
system.physmem.wrQLenPdf::22                     7733                       # What write queue length does an incoming req see
system.physmem.wrQLenPdf::23                     8218                       # What write queue length does an incoming req see
system.physmem.wrQLenPdf::24                     8271                       # What write queue length does an incoming req see
system.physmem.wrQLenPdf::25                     9582                       # What write queue length does an incoming req see
system.physmem.wrQLenPdf::26                     9943                       # What write queue length does an incoming req see
system.physmem.wrQLenPdf::27                     8295                       # What write queue length does an incoming req see
system.physmem.wrQLenPdf::28                     8200                       # What write queue length does an incoming req see
system.physmem.wrQLenPdf::29                     8031                       # What write queue length does an incoming req see
system.physmem.wrQLenPdf::30                     7326                       # What write queue length does an incoming req see
system.physmem.wrQLenPdf::31                     7196                       # What write queue length does an incoming req see
system.physmem.wrQLenPdf::32                     7152                       # What write queue length does an incoming req see
system.physmem.wrQLenPdf::33                      364                       # What write queue length does an incoming req see
system.physmem.wrQLenPdf::34                      327                       # What write queue length does an incoming req see
system.physmem.wrQLenPdf::35                      266                       # What write queue length does an incoming req see
system.physmem.wrQLenPdf::36                      134                       # What write queue length does an incoming req see
system.physmem.wrQLenPdf::37                      133                       # What write queue length does an incoming req see
system.physmem.wrQLenPdf::38                      125                       # What write queue length does an incoming req see
system.physmem.wrQLenPdf::39                      139                       # What write queue length does an incoming req see
system.physmem.wrQLenPdf::40                      101                       # What write queue length does an incoming req see
system.physmem.wrQLenPdf::41                      130                       # What write queue length does an incoming req see
system.physmem.wrQLenPdf::42                      109                       # What write queue length does an incoming req see
system.physmem.wrQLenPdf::43                      104                       # What write queue length does an incoming req see
system.physmem.wrQLenPdf::44                      129                       # What write queue length does an incoming req see
system.physmem.wrQLenPdf::45                       98                       # What write queue length does an incoming req see
system.physmem.wrQLenPdf::46                      150                       # What write queue length does an incoming req see
system.physmem.wrQLenPdf::47                      136                       # What write queue length does an incoming req see
system.physmem.wrQLenPdf::48                       91                       # What write queue length does an incoming req see
system.physmem.wrQLenPdf::49                       90                       # What write queue length does an incoming req see
system.physmem.wrQLenPdf::50                       92                       # What write queue length does an incoming req see
system.physmem.wrQLenPdf::51                       70                       # What write queue length does an incoming req see
system.physmem.wrQLenPdf::52                       70                       # What write queue length does an incoming req see
system.physmem.wrQLenPdf::53                       83                       # What write queue length does an incoming req see
system.physmem.wrQLenPdf::54                       59                       # What write queue length does an incoming req see
system.physmem.wrQLenPdf::55                       64                       # What write queue length does an incoming req see
system.physmem.wrQLenPdf::56                       79                       # What write queue length does an incoming req see
system.physmem.wrQLenPdf::57                       57                       # What write queue length does an incoming req see
system.physmem.wrQLenPdf::58                       31                       # What write queue length does an incoming req see
system.physmem.wrQLenPdf::59                       26                       # What write queue length does an incoming req see
system.physmem.wrQLenPdf::60                       28                       # What write queue length does an incoming req see
system.physmem.wrQLenPdf::61                       32                       # What write queue length does an incoming req see
system.physmem.wrQLenPdf::62                       12                       # What write queue length does an incoming req see
system.physmem.wrQLenPdf::63                       10                       # What write queue length does an incoming req see
system.physmem.bytesPerActivate::samples        64990                       # Bytes accessed per row activation
system.physmem.bytesPerActivate::mean      303.434251                       # Bytes accessed per row activation
system.physmem.bytesPerActivate::gmean     179.571710                       # Bytes accessed per row activation
system.physmem.bytesPerActivate::stdev     325.070143                       # Bytes accessed per row activation
system.physmem.bytesPerActivate::0-127          24166     37.18%     37.18% # Bytes accessed per row activation
system.physmem.bytesPerActivate::128-255        15993     24.61%     61.79% # Bytes accessed per row activation
system.physmem.bytesPerActivate::256-383         6821     10.50%     72.29% # Bytes accessed per row activation
system.physmem.bytesPerActivate::384-511         3792      5.83%     78.12% # Bytes accessed per row activation
system.physmem.bytesPerActivate::512-639         2758      4.24%     82.37% # Bytes accessed per row activation
system.physmem.bytesPerActivate::640-767         1633      2.51%     84.88% # Bytes accessed per row activation
system.physmem.bytesPerActivate::768-895         1086      1.67%     86.55% # Bytes accessed per row activation
system.physmem.bytesPerActivate::896-1023         1085      1.67%     88.22% # Bytes accessed per row activation
system.physmem.bytesPerActivate::1024-1151         7656     11.78%    100.00% # Bytes accessed per row activation
system.physmem.bytesPerActivate::total          64990                       # Bytes accessed per row activation
system.physmem.rdPerTurnAround::samples          6662                       # Reads before turning the bus around for writes
system.physmem.rdPerTurnAround::mean        26.461423                       # Reads before turning the bus around for writes
system.physmem.rdPerTurnAround::stdev      559.657587                       # Reads before turning the bus around for writes
system.physmem.rdPerTurnAround::0-2047           6661     99.98%     99.98% # Reads before turning the bus around for writes
system.physmem.rdPerTurnAround::45056-47103            1      0.02%    100.00% # Reads before turning the bus around for writes
system.physmem.rdPerTurnAround::total            6662                       # Reads before turning the bus around for writes
system.physmem.wrPerTurnAround::samples          6662                       # Writes before turning the bus around for reads
system.physmem.wrPerTurnAround::mean        19.790003                       # Writes before turning the bus around for reads
system.physmem.wrPerTurnAround::gmean       18.288798                       # Writes before turning the bus around for reads
system.physmem.wrPerTurnAround::stdev       12.351415                       # Writes before turning the bus around for reads
system.physmem.wrPerTurnAround::16-19            5875     88.19%     88.19% # Writes before turning the bus around for reads
system.physmem.wrPerTurnAround::20-23              70      1.05%     89.24% # Writes before turning the bus around for reads
system.physmem.wrPerTurnAround::24-27              75      1.13%     90.36% # Writes before turning the bus around for reads
system.physmem.wrPerTurnAround::28-31              36      0.54%     90.90% # Writes before turning the bus around for reads
system.physmem.wrPerTurnAround::32-35             259      3.89%     94.79% # Writes before turning the bus around for reads
system.physmem.wrPerTurnAround::36-39              62      0.93%     95.72% # Writes before turning the bus around for reads
system.physmem.wrPerTurnAround::40-43              25      0.38%     96.10% # Writes before turning the bus around for reads
system.physmem.wrPerTurnAround::44-47              19      0.29%     96.38% # Writes before turning the bus around for reads
system.physmem.wrPerTurnAround::48-51               9      0.14%     96.52% # Writes before turning the bus around for reads
system.physmem.wrPerTurnAround::52-55               7      0.11%     96.62% # Writes before turning the bus around for reads
system.physmem.wrPerTurnAround::56-59               3      0.05%     96.67% # Writes before turning the bus around for reads
system.physmem.wrPerTurnAround::60-63               4      0.06%     96.73% # Writes before turning the bus around for reads
system.physmem.wrPerTurnAround::64-67             160      2.40%     99.13% # Writes before turning the bus around for reads
system.physmem.wrPerTurnAround::68-71               6      0.09%     99.22% # Writes before turning the bus around for reads
system.physmem.wrPerTurnAround::72-75               8      0.12%     99.34% # Writes before turning the bus around for reads
system.physmem.wrPerTurnAround::76-79               2      0.03%     99.37% # Writes before turning the bus around for reads
system.physmem.wrPerTurnAround::80-83               6      0.09%     99.46% # Writes before turning the bus around for reads
system.physmem.wrPerTurnAround::84-87               1      0.02%     99.47% # Writes before turning the bus around for reads
system.physmem.wrPerTurnAround::96-99               3      0.05%     99.52% # Writes before turning the bus around for reads
system.physmem.wrPerTurnAround::100-103             1      0.02%     99.53% # Writes before turning the bus around for reads
system.physmem.wrPerTurnAround::104-107             1      0.02%     99.55% # Writes before turning the bus around for reads
system.physmem.wrPerTurnAround::108-111            10      0.15%     99.70% # Writes before turning the bus around for reads
system.physmem.wrPerTurnAround::112-115             1      0.02%     99.71% # Writes before turning the bus around for reads
system.physmem.wrPerTurnAround::124-127             1      0.02%     99.73% # Writes before turning the bus around for reads
system.physmem.wrPerTurnAround::128-131             8      0.12%     99.85% # Writes before turning the bus around for reads
system.physmem.wrPerTurnAround::132-135             1      0.02%     99.86% # Writes before turning the bus around for reads
system.physmem.wrPerTurnAround::144-147             1      0.02%     99.88% # Writes before turning the bus around for reads
system.physmem.wrPerTurnAround::156-159             1      0.02%     99.89% # Writes before turning the bus around for reads
system.physmem.wrPerTurnAround::160-163             1      0.02%     99.91% # Writes before turning the bus around for reads
system.physmem.wrPerTurnAround::168-171             2      0.03%     99.94% # Writes before turning the bus around for reads
system.physmem.wrPerTurnAround::172-175             2      0.03%     99.97% # Writes before turning the bus around for reads
system.physmem.wrPerTurnAround::180-183             1      0.02%     99.98% # Writes before turning the bus around for reads
system.physmem.wrPerTurnAround::192-195             1      0.02%    100.00% # Writes before turning the bus around for reads
system.physmem.wrPerTurnAround::total            6662                       # Writes before turning the bus around for reads
system.physmem.totQLat                     2116192000                       # Total ticks spent queuing
system.physmem.totMemAccLat                5421592000                       # Total ticks spent from burst creation until serviced by the DRAM
system.physmem.totBusLat                    881440000                       # Total ticks spent in databus transfers
system.physmem.avgQLat                       12004.17                       # Average queueing delay per DRAM burst
system.physmem.avgBusLat                      5000.00                       # Average bus latency per DRAM burst
system.physmem.avgMemAccLat                  30754.17                       # Average memory access latency per DRAM burst
system.physmem.avgRdBW                           3.99                       # Average DRAM read bandwidth in MiByte/s
system.physmem.avgWrBW                           2.98                       # Average achieved write bandwidth in MiByte/s
system.physmem.avgRdBWSys                        3.93                       # Average system read bandwidth in MiByte/s
system.physmem.avgWrBWSys                        2.98                       # Average system write bandwidth in MiByte/s
system.physmem.peakBW                        12800.00                       # Theoretical peak bandwidth in MiByte/s
system.physmem.busUtil                           0.05                       # Data bus utilization in percentage
system.physmem.busUtilRead                       0.03                       # Data bus utilization in percentage for reads
system.physmem.busUtilWrite                      0.02                       # Data bus utilization in percentage for writes
system.physmem.avgRdQLen                         1.01                       # Average read queue length when enqueuing
system.physmem.avgWrQLen                        23.03                       # Average write queue length when enqueuing
system.physmem.readRowHits                     145153                       # Number of row buffer hits during reads
system.physmem.writeRowHits                     97985                       # Number of row buffer hits during writes
system.physmem.readRowHitRate                   82.34                       # Row buffer hit rate for reads
system.physmem.writeRowHitRate                  74.31                       # Row buffer hit rate for writes
system.physmem.avgGap                      9058288.90                       # Average gap between requests
system.physmem.pageHitRate                      78.90                       # Row buffer hit rate, read and write combined
system.physmem_0.actEnergy                  256087440                       # Energy for activate commands per rank (pJ)
system.physmem_0.preEnergy                  139730250                       # Energy for precharge commands per rank (pJ)
system.physmem_0.readEnergy                 720922800                       # Energy for read commands per rank (pJ)
system.physmem_0.writeEnergy                438605280                       # Energy for write commands per rank (pJ)
system.physmem_0.refreshEnergy           184701363600                       # Energy for refresh commands per rank (pJ)
system.physmem_0.actBackEnergy            81077227785                       # Energy for active background per rank (pJ)
system.physmem_0.preBackEnergy           1625589296250                       # Energy for precharge background per rank (pJ)
system.physmem_0.totalEnergy             1892923233405                       # Total energy per rank (pJ)
system.physmem_0.averagePower              669.386141                       # Core power per rank (mW)
system.physmem_0.memoryStateTime::IDLE   2704185411500                       # Time in different power states
system.physmem_0.memoryStateTime::REF     94428100000                       # Time in different power states
system.physmem_0.memoryStateTime::PRE_PDN            0                       # Time in different power states
system.physmem_0.memoryStateTime::ACT     29235954750                       # Time in different power states
system.physmem_0.memoryStateTime::ACT_PDN            0                       # Time in different power states
system.physmem_1.actEnergy                  235236960                       # Energy for activate commands per rank (pJ)
system.physmem_1.preEnergy                  128353500                       # Energy for precharge commands per rank (pJ)
system.physmem_1.readEnergy                 654115800                       # Energy for read commands per rank (pJ)
system.physmem_1.writeEnergy                415724400                       # Energy for write commands per rank (pJ)
system.physmem_1.refreshEnergy           184701363600                       # Energy for refresh commands per rank (pJ)
system.physmem_1.actBackEnergy            80292349755                       # Energy for active background per rank (pJ)
system.physmem_1.preBackEnergy           1626277785750                       # Energy for precharge background per rank (pJ)
system.physmem_1.totalEnergy             1892704929765                       # Total energy per rank (pJ)
system.physmem_1.averagePower              669.308944                       # Core power per rank (mW)
system.physmem_1.memoryStateTime::IDLE   2705344853000                       # Time in different power states
system.physmem_1.memoryStateTime::REF     94428100000                       # Time in different power states
system.physmem_1.memoryStateTime::PRE_PDN            0                       # Time in different power states
system.physmem_1.memoryStateTime::ACT     28080129500                       # Time in different power states
system.physmem_1.memoryStateTime::ACT_PDN            0                       # Time in different power states
system.realview.nvmem.pwrStateResidencyTicks::UNDEFINED 2827853096000                       # Cumulative time (in ticks) in various power states
system.realview.nvmem.bytes_read::cpu.inst          112                       # Number of bytes read from this memory
system.realview.nvmem.bytes_read::total           112                       # Number of bytes read from this memory
system.realview.nvmem.bytes_inst_read::cpu.inst          112                       # Number of instructions bytes read from this memory
system.realview.nvmem.bytes_inst_read::total          112                       # Number of instructions bytes read from this memory
system.realview.nvmem.num_reads::cpu.inst            7                       # Number of read requests responded to by this memory
system.realview.nvmem.num_reads::total              7                       # Number of read requests responded to by this memory
system.realview.nvmem.bw_read::cpu.inst            40                       # Total read bandwidth from this memory (bytes/s)
system.realview.nvmem.bw_read::total               40                       # Total read bandwidth from this memory (bytes/s)
system.realview.nvmem.bw_inst_read::cpu.inst           40                       # Instruction read bandwidth from this memory (bytes/s)
system.realview.nvmem.bw_inst_read::total           40                       # Instruction read bandwidth from this memory (bytes/s)
system.realview.nvmem.bw_total::cpu.inst           40                       # Total bandwidth to/from this memory (bytes/s)
system.realview.nvmem.bw_total::total              40                       # Total bandwidth to/from this memory (bytes/s)
system.realview.vram.pwrStateResidencyTicks::UNDEFINED 2827853096000                       # Cumulative time (in ticks) in various power states
system.pwrStateResidencyTicks::UNDEFINED 2827853096000                       # Cumulative time (in ticks) in various power states
system.bridge.pwrStateResidencyTicks::UNDEFINED 2827853096000                       # Cumulative time (in ticks) in various power states
system.cf0.dma_read_full_pages                      0                       # Number of full page size DMA reads (not PRD).
system.cf0.dma_read_bytes                        1024                       # Number of bytes transfered via DMA reads (not PRD).
system.cf0.dma_read_txs                             1                       # Number of DMA read transactions (not PRD).
system.cf0.dma_write_full_pages                   540                       # Number of full page size DMA writes.
system.cf0.dma_write_bytes                    2318336                       # Number of bytes transfered via DMA writes.
system.cf0.dma_write_txs                          631                       # Number of DMA write transactions.
system.cpu.branchPred.lookups                46859222                       # Number of BP lookups
system.cpu.branchPred.condPredicted          23995015                       # Number of conditional branches predicted
system.cpu.branchPred.condIncorrect           1174256                       # Number of conditional branches incorrect
system.cpu.branchPred.BTBLookups             29489294                       # Number of BTB lookups
system.cpu.branchPred.BTBHits                13535968                       # Number of BTB hits
system.cpu.branchPred.BTBCorrect                    0                       # Number of correct BTB predictions (this stat may not work properly.
system.cpu.branchPred.BTBHitPct             45.901296                       # BTB Hit Percentage
system.cpu.branchPred.usedRAS                11745095                       # Number of times the RAS was used to get a target.
system.cpu.branchPred.RASInCorrect              35189                       # Number of incorrect RAS predictions.
system.cpu.branchPred.indirectLookups         7931554                       # Number of indirect predictor lookups.
system.cpu.branchPred.indirectHits            7786304                       # Number of indirect target hits.
system.cpu.branchPred.indirectMisses           145250                       # Number of indirect misses.
system.cpu.branchPredindirectMispredicted        60170                       # Number of mispredicted indirect branches.
system.cpu_clk_domain.clock                       500                       # Clock period in ticks
system.cpu.dstage2_mmu.stage2_tlb.walker.pwrStateResidencyTicks::UNDEFINED 2827853096000                       # Cumulative time (in ticks) in various power states
system.cpu.dstage2_mmu.stage2_tlb.walker.walks            0                       # Table walker walks requested
system.cpu.dstage2_mmu.stage2_tlb.walker.walkRequestOrigin_Requested::Data            0                       # Table walker requests started/completed, data/inst
system.cpu.dstage2_mmu.stage2_tlb.walker.walkRequestOrigin_Requested::Inst            0                       # Table walker requests started/completed, data/inst
system.cpu.dstage2_mmu.stage2_tlb.walker.walkRequestOrigin_Requested::total            0                       # Table walker requests started/completed, data/inst
system.cpu.dstage2_mmu.stage2_tlb.walker.walkRequestOrigin_Completed::Data            0                       # Table walker requests started/completed, data/inst
system.cpu.dstage2_mmu.stage2_tlb.walker.walkRequestOrigin_Completed::Inst            0                       # Table walker requests started/completed, data/inst
system.cpu.dstage2_mmu.stage2_tlb.walker.walkRequestOrigin_Completed::total            0                       # Table walker requests started/completed, data/inst
system.cpu.dstage2_mmu.stage2_tlb.walker.walkRequestOrigin::total            0                       # Table walker requests started/completed, data/inst
system.cpu.dstage2_mmu.stage2_tlb.inst_hits            0                       # ITB inst hits
system.cpu.dstage2_mmu.stage2_tlb.inst_misses            0                       # ITB inst misses
system.cpu.dstage2_mmu.stage2_tlb.read_hits            0                       # DTB read hits
system.cpu.dstage2_mmu.stage2_tlb.read_misses            0                       # DTB read misses
system.cpu.dstage2_mmu.stage2_tlb.write_hits            0                       # DTB write hits
system.cpu.dstage2_mmu.stage2_tlb.write_misses            0                       # DTB write misses
system.cpu.dstage2_mmu.stage2_tlb.flush_tlb            0                       # Number of times complete TLB was flushed
system.cpu.dstage2_mmu.stage2_tlb.flush_tlb_mva            0                       # Number of times TLB was flushed by MVA
system.cpu.dstage2_mmu.stage2_tlb.flush_tlb_mva_asid            0                       # Number of times TLB was flushed by MVA & ASID
system.cpu.dstage2_mmu.stage2_tlb.flush_tlb_asid            0                       # Number of times TLB was flushed by ASID
system.cpu.dstage2_mmu.stage2_tlb.flush_entries            0                       # Number of entries that have been flushed from TLB
system.cpu.dstage2_mmu.stage2_tlb.align_faults            0                       # Number of TLB faults due to alignment restrictions
system.cpu.dstage2_mmu.stage2_tlb.prefetch_faults            0                       # Number of TLB faults due to prefetch
system.cpu.dstage2_mmu.stage2_tlb.domain_faults            0                       # Number of TLB faults due to domain restrictions
system.cpu.dstage2_mmu.stage2_tlb.perms_faults            0                       # Number of TLB faults due to permissions restrictions
system.cpu.dstage2_mmu.stage2_tlb.read_accesses            0                       # DTB read accesses
system.cpu.dstage2_mmu.stage2_tlb.write_accesses            0                       # DTB write accesses
system.cpu.dstage2_mmu.stage2_tlb.inst_accesses            0                       # ITB inst accesses
system.cpu.dstage2_mmu.stage2_tlb.hits              0                       # DTB hits
system.cpu.dstage2_mmu.stage2_tlb.misses            0                       # DTB misses
system.cpu.dstage2_mmu.stage2_tlb.accesses            0                       # DTB accesses
system.cpu.dtb.walker.pwrStateResidencyTicks::UNDEFINED 2827853096000                       # Cumulative time (in ticks) in various power states
system.cpu.dtb.walker.walks                     72426                       # Table walker walks requested
system.cpu.dtb.walker.walksShort                72426                       # Table walker walks initiated with short descriptors
system.cpu.dtb.walker.walksShortTerminationLevel::Level1        29716                       # Level at which table walker walks with short descriptors terminate
system.cpu.dtb.walker.walksShortTerminationLevel::Level2        23400                       # Level at which table walker walks with short descriptors terminate
system.cpu.dtb.walker.walksSquashedBefore        19310                       # Table walks squashed before starting
system.cpu.dtb.walker.walkWaitTime::samples        53116                       # Table walker wait (enqueue to first request) latency
system.cpu.dtb.walker.walkWaitTime::mean   407.485503                       # Table walker wait (enqueue to first request) latency
system.cpu.dtb.walker.walkWaitTime::stdev  2469.018740                       # Table walker wait (enqueue to first request) latency
system.cpu.dtb.walker.walkWaitTime::0-8191        51917     97.74%     97.74% # Table walker wait (enqueue to first request) latency
system.cpu.dtb.walker.walkWaitTime::8192-16383          937      1.76%     99.51% # Table walker wait (enqueue to first request) latency
system.cpu.dtb.walker.walkWaitTime::16384-24575          190      0.36%     99.86% # Table walker wait (enqueue to first request) latency
system.cpu.dtb.walker.walkWaitTime::24576-32767           37      0.07%     99.93% # Table walker wait (enqueue to first request) latency
system.cpu.dtb.walker.walkWaitTime::32768-40959           15      0.03%     99.96% # Table walker wait (enqueue to first request) latency
system.cpu.dtb.walker.walkWaitTime::40960-49151           16      0.03%     99.99% # Table walker wait (enqueue to first request) latency
system.cpu.dtb.walker.walkWaitTime::49152-57343            2      0.00%    100.00% # Table walker wait (enqueue to first request) latency
system.cpu.dtb.walker.walkWaitTime::57344-65535            1      0.00%    100.00% # Table walker wait (enqueue to first request) latency
system.cpu.dtb.walker.walkWaitTime::65536-73727            1      0.00%    100.00% # Table walker wait (enqueue to first request) latency
system.cpu.dtb.walker.walkWaitTime::total        53116                       # Table walker wait (enqueue to first request) latency
system.cpu.dtb.walker.walkCompletionTime::samples        17396                       # Table walker service (enqueue to completion) latency
system.cpu.dtb.walker.walkCompletionTime::mean  9637.387905                       # Table walker service (enqueue to completion) latency
system.cpu.dtb.walker.walkCompletionTime::gmean  7803.906851                       # Table walker service (enqueue to completion) latency
system.cpu.dtb.walker.walkCompletionTime::stdev  6813.601039                       # Table walker service (enqueue to completion) latency
system.cpu.dtb.walker.walkCompletionTime::0-16383        15561     89.45%     89.45% # Table walker service (enqueue to completion) latency
system.cpu.dtb.walker.walkCompletionTime::16384-32767         1740     10.00%     99.45% # Table walker service (enqueue to completion) latency
system.cpu.dtb.walker.walkCompletionTime::32768-49151           86      0.49%     99.95% # Table walker service (enqueue to completion) latency
system.cpu.dtb.walker.walkCompletionTime::49152-65535            2      0.01%     99.96% # Table walker service (enqueue to completion) latency
system.cpu.dtb.walker.walkCompletionTime::65536-81919            1      0.01%     99.97% # Table walker service (enqueue to completion) latency
system.cpu.dtb.walker.walkCompletionTime::81920-98303            4      0.02%     99.99% # Table walker service (enqueue to completion) latency
system.cpu.dtb.walker.walkCompletionTime::147456-163839            1      0.01%     99.99% # Table walker service (enqueue to completion) latency
system.cpu.dtb.walker.walkCompletionTime::245760-262143            1      0.01%    100.00% # Table walker service (enqueue to completion) latency
system.cpu.dtb.walker.walkCompletionTime::total        17396                       # Table walker service (enqueue to completion) latency
system.cpu.dtb.walker.walksPending::samples 117727604724                       # Table walker pending requests distribution
system.cpu.dtb.walker.walksPending::mean     0.629848                       # Table walker pending requests distribution
system.cpu.dtb.walker.walksPending::stdev     0.489627                       # Table walker pending requests distribution
system.cpu.dtb.walker.walksPending::0-1  117677681224     99.96%     99.96% # Table walker pending requests distribution
system.cpu.dtb.walker.walksPending::2-3      34838500      0.03%     99.99% # Table walker pending requests distribution
system.cpu.dtb.walker.walksPending::4-5       7318000      0.01%     99.99% # Table walker pending requests distribution
system.cpu.dtb.walker.walksPending::6-7       4585500      0.00%    100.00% # Table walker pending requests distribution
system.cpu.dtb.walker.walksPending::8-9        935500      0.00%    100.00% # Table walker pending requests distribution
system.cpu.dtb.walker.walksPending::10-11       533500      0.00%    100.00% # Table walker pending requests distribution
system.cpu.dtb.walker.walksPending::12-13      1306000      0.00%    100.00% # Table walker pending requests distribution
system.cpu.dtb.walker.walksPending::14-15       397000      0.00%    100.00% # Table walker pending requests distribution
system.cpu.dtb.walker.walksPending::16-17         9500      0.00%    100.00% # Table walker pending requests distribution
system.cpu.dtb.walker.walksPending::total 117727604724                       # Table walker pending requests distribution
system.cpu.dtb.walker.walkPageSizes::4K          6471     81.85%     81.85% # Table walker page sizes translated
system.cpu.dtb.walker.walkPageSizes::1M          1435     18.15%    100.00% # Table walker page sizes translated
system.cpu.dtb.walker.walkPageSizes::total         7906                       # Table walker page sizes translated
system.cpu.dtb.walker.walkRequestOrigin_Requested::Data        72426                       # Table walker requests started/completed, data/inst
system.cpu.dtb.walker.walkRequestOrigin_Requested::Inst            0                       # Table walker requests started/completed, data/inst
system.cpu.dtb.walker.walkRequestOrigin_Requested::total        72426                       # Table walker requests started/completed, data/inst
system.cpu.dtb.walker.walkRequestOrigin_Completed::Data         7906                       # Table walker requests started/completed, data/inst
system.cpu.dtb.walker.walkRequestOrigin_Completed::Inst            0                       # Table walker requests started/completed, data/inst
system.cpu.dtb.walker.walkRequestOrigin_Completed::total         7906                       # Table walker requests started/completed, data/inst
system.cpu.dtb.walker.walkRequestOrigin::total        80332                       # Table walker requests started/completed, data/inst
system.cpu.dtb.inst_hits                            0                       # ITB inst hits
system.cpu.dtb.inst_misses                          0                       # ITB inst misses
system.cpu.dtb.read_hits                     25423365                       # DTB read hits
system.cpu.dtb.read_misses                      62664                       # DTB read misses
system.cpu.dtb.write_hits                    19868926                       # DTB write hits
system.cpu.dtb.write_misses                      9762                       # DTB write misses
system.cpu.dtb.flush_tlb                           64                       # Number of times complete TLB was flushed
system.cpu.dtb.flush_tlb_mva                      917                       # Number of times TLB was flushed by MVA
system.cpu.dtb.flush_tlb_mva_asid                   0                       # Number of times TLB was flushed by MVA & ASID
system.cpu.dtb.flush_tlb_asid                       0                       # Number of times TLB was flushed by ASID
system.cpu.dtb.flush_entries                     4289                       # Number of entries that have been flushed from TLB
system.cpu.dtb.align_faults                       358                       # Number of TLB faults due to alignment restrictions
system.cpu.dtb.prefetch_faults                   2236                       # Number of TLB faults due to prefetch
system.cpu.dtb.domain_faults                        0                       # Number of TLB faults due to domain restrictions
system.cpu.dtb.perms_faults                      1258                       # Number of TLB faults due to permissions restrictions
system.cpu.dtb.read_accesses                 25486029                       # DTB read accesses
system.cpu.dtb.write_accesses                19878688                       # DTB write accesses
system.cpu.dtb.inst_accesses                        0                       # ITB inst accesses
system.cpu.dtb.hits                          45292291                       # DTB hits
system.cpu.dtb.misses                           72426                       # DTB misses
system.cpu.dtb.accesses                      45364717                       # DTB accesses
system.cpu.istage2_mmu.stage2_tlb.walker.pwrStateResidencyTicks::UNDEFINED 2827853096000                       # Cumulative time (in ticks) in various power states
system.cpu.istage2_mmu.stage2_tlb.walker.walks            0                       # Table walker walks requested
system.cpu.istage2_mmu.stage2_tlb.walker.walkRequestOrigin_Requested::Data            0                       # Table walker requests started/completed, data/inst
system.cpu.istage2_mmu.stage2_tlb.walker.walkRequestOrigin_Requested::Inst            0                       # Table walker requests started/completed, data/inst
system.cpu.istage2_mmu.stage2_tlb.walker.walkRequestOrigin_Requested::total            0                       # Table walker requests started/completed, data/inst
system.cpu.istage2_mmu.stage2_tlb.walker.walkRequestOrigin_Completed::Data            0                       # Table walker requests started/completed, data/inst
system.cpu.istage2_mmu.stage2_tlb.walker.walkRequestOrigin_Completed::Inst            0                       # Table walker requests started/completed, data/inst
system.cpu.istage2_mmu.stage2_tlb.walker.walkRequestOrigin_Completed::total            0                       # Table walker requests started/completed, data/inst
system.cpu.istage2_mmu.stage2_tlb.walker.walkRequestOrigin::total            0                       # Table walker requests started/completed, data/inst
system.cpu.istage2_mmu.stage2_tlb.inst_hits            0                       # ITB inst hits
system.cpu.istage2_mmu.stage2_tlb.inst_misses            0                       # ITB inst misses
system.cpu.istage2_mmu.stage2_tlb.read_hits            0                       # DTB read hits
system.cpu.istage2_mmu.stage2_tlb.read_misses            0                       # DTB read misses
system.cpu.istage2_mmu.stage2_tlb.write_hits            0                       # DTB write hits
system.cpu.istage2_mmu.stage2_tlb.write_misses            0                       # DTB write misses
system.cpu.istage2_mmu.stage2_tlb.flush_tlb            0                       # Number of times complete TLB was flushed
system.cpu.istage2_mmu.stage2_tlb.flush_tlb_mva            0                       # Number of times TLB was flushed by MVA
system.cpu.istage2_mmu.stage2_tlb.flush_tlb_mva_asid            0                       # Number of times TLB was flushed by MVA & ASID
system.cpu.istage2_mmu.stage2_tlb.flush_tlb_asid            0                       # Number of times TLB was flushed by ASID
system.cpu.istage2_mmu.stage2_tlb.flush_entries            0                       # Number of entries that have been flushed from TLB
system.cpu.istage2_mmu.stage2_tlb.align_faults            0                       # Number of TLB faults due to alignment restrictions
system.cpu.istage2_mmu.stage2_tlb.prefetch_faults            0                       # Number of TLB faults due to prefetch
system.cpu.istage2_mmu.stage2_tlb.domain_faults            0                       # Number of TLB faults due to domain restrictions
system.cpu.istage2_mmu.stage2_tlb.perms_faults            0                       # Number of TLB faults due to permissions restrictions
system.cpu.istage2_mmu.stage2_tlb.read_accesses            0                       # DTB read accesses
system.cpu.istage2_mmu.stage2_tlb.write_accesses            0                       # DTB write accesses
system.cpu.istage2_mmu.stage2_tlb.inst_accesses            0                       # ITB inst accesses
system.cpu.istage2_mmu.stage2_tlb.hits              0                       # DTB hits
system.cpu.istage2_mmu.stage2_tlb.misses            0                       # DTB misses
system.cpu.istage2_mmu.stage2_tlb.accesses            0                       # DTB accesses
system.cpu.itb.walker.pwrStateResidencyTicks::UNDEFINED 2827853096000                       # Cumulative time (in ticks) in various power states
system.cpu.itb.walker.walks                     12855                       # Table walker walks requested
system.cpu.itb.walker.walksShort                12855                       # Table walker walks initiated with short descriptors
system.cpu.itb.walker.walksShortTerminationLevel::Level1         3590                       # Level at which table walker walks with short descriptors terminate
system.cpu.itb.walker.walksShortTerminationLevel::Level2         7693                       # Level at which table walker walks with short descriptors terminate
system.cpu.itb.walker.walksSquashedBefore         1572                       # Table walks squashed before starting
system.cpu.itb.walker.walkWaitTime::samples        11283                       # Table walker wait (enqueue to first request) latency
system.cpu.itb.walker.walkWaitTime::mean   605.778605                       # Table walker wait (enqueue to first request) latency
system.cpu.itb.walker.walkWaitTime::stdev  2805.757421                       # Table walker wait (enqueue to first request) latency
system.cpu.itb.walker.walkWaitTime::0-8191        10907     96.67%     96.67% # Table walker wait (enqueue to first request) latency
system.cpu.itb.walker.walkWaitTime::8192-16383          327      2.90%     99.57% # Table walker wait (enqueue to first request) latency
system.cpu.itb.walker.walkWaitTime::16384-24575           40      0.35%     99.92% # Table walker wait (enqueue to first request) latency
system.cpu.itb.walker.walkWaitTime::24576-32767            5      0.04%     99.96% # Table walker wait (enqueue to first request) latency
system.cpu.itb.walker.walkWaitTime::40960-49151            1      0.01%     99.97% # Table walker wait (enqueue to first request) latency
system.cpu.itb.walker.walkWaitTime::57344-65535            1      0.01%     99.98% # Table walker wait (enqueue to first request) latency
system.cpu.itb.walker.walkWaitTime::65536-73727            1      0.01%     99.99% # Table walker wait (enqueue to first request) latency
system.cpu.itb.walker.walkWaitTime::81920-90111            1      0.01%    100.00% # Table walker wait (enqueue to first request) latency
system.cpu.itb.walker.walkWaitTime::total        11283                       # Table walker wait (enqueue to first request) latency
system.cpu.itb.walker.walkCompletionTime::samples         4887                       # Table walker service (enqueue to completion) latency
system.cpu.itb.walker.walkCompletionTime::mean  8961.019030                       # Table walker service (enqueue to completion) latency
system.cpu.itb.walker.walkCompletionTime::gmean  7007.167188                       # Table walker service (enqueue to completion) latency
system.cpu.itb.walker.walkCompletionTime::stdev  7172.888707                       # Table walker service (enqueue to completion) latency
system.cpu.itb.walker.walkCompletionTime::0-8191         3327     68.08%     68.08% # Table walker service (enqueue to completion) latency
system.cpu.itb.walker.walkCompletionTime::8192-16383          829     16.96%     85.04% # Table walker service (enqueue to completion) latency
system.cpu.itb.walker.walkCompletionTime::16384-24575          682     13.96%     99.00% # Table walker service (enqueue to completion) latency
system.cpu.itb.walker.walkCompletionTime::24576-32767           38      0.78%     99.77% # Table walker service (enqueue to completion) latency
system.cpu.itb.walker.walkCompletionTime::32768-40959            1      0.02%     99.80% # Table walker service (enqueue to completion) latency
system.cpu.itb.walker.walkCompletionTime::40960-49151            7      0.14%     99.94% # Table walker service (enqueue to completion) latency
system.cpu.itb.walker.walkCompletionTime::49152-57343            1      0.02%     99.96% # Table walker service (enqueue to completion) latency
system.cpu.itb.walker.walkCompletionTime::81920-90111            2      0.04%    100.00% # Table walker service (enqueue to completion) latency
system.cpu.itb.walker.walkCompletionTime::total         4887                       # Table walker service (enqueue to completion) latency
system.cpu.itb.walker.walksPending::samples  23237381212                       # Table walker pending requests distribution
system.cpu.itb.walker.walksPending::mean     0.774797                       # Table walker pending requests distribution
system.cpu.itb.walker.walksPending::stdev     0.417824                       # Table walker pending requests distribution
system.cpu.itb.walker.walksPending::0      5234024500     22.52%     22.52% # Table walker pending requests distribution
system.cpu.itb.walker.walksPending::1     18002578212     77.47%    100.00% # Table walker pending requests distribution
system.cpu.itb.walker.walksPending::2          696500      0.00%    100.00% # Table walker pending requests distribution
system.cpu.itb.walker.walksPending::3           46500      0.00%    100.00% # Table walker pending requests distribution
system.cpu.itb.walker.walksPending::4           35500      0.00%    100.00% # Table walker pending requests distribution
system.cpu.itb.walker.walksPending::total  23237381212                       # Table walker pending requests distribution
system.cpu.itb.walker.walkPageSizes::4K          2980     89.89%     89.89% # Table walker page sizes translated
system.cpu.itb.walker.walkPageSizes::1M           335     10.11%    100.00% # Table walker page sizes translated
system.cpu.itb.walker.walkPageSizes::total         3315                       # Table walker page sizes translated
system.cpu.itb.walker.walkRequestOrigin_Requested::Data            0                       # Table walker requests started/completed, data/inst
system.cpu.itb.walker.walkRequestOrigin_Requested::Inst        12855                       # Table walker requests started/completed, data/inst
system.cpu.itb.walker.walkRequestOrigin_Requested::total        12855                       # Table walker requests started/completed, data/inst
system.cpu.itb.walker.walkRequestOrigin_Completed::Data            0                       # Table walker requests started/completed, data/inst
system.cpu.itb.walker.walkRequestOrigin_Completed::Inst         3315                       # Table walker requests started/completed, data/inst
system.cpu.itb.walker.walkRequestOrigin_Completed::total         3315                       # Table walker requests started/completed, data/inst
system.cpu.itb.walker.walkRequestOrigin::total        16170                       # Table walker requests started/completed, data/inst
system.cpu.itb.inst_hits                     66060204                       # ITB inst hits
system.cpu.itb.inst_misses                      12855                       # ITB inst misses
system.cpu.itb.read_hits                            0                       # DTB read hits
system.cpu.itb.read_misses                          0                       # DTB read misses
system.cpu.itb.write_hits                           0                       # DTB write hits
system.cpu.itb.write_misses                         0                       # DTB write misses
system.cpu.itb.flush_tlb                           64                       # Number of times complete TLB was flushed
system.cpu.itb.flush_tlb_mva                      917                       # Number of times TLB was flushed by MVA
system.cpu.itb.flush_tlb_mva_asid                   0                       # Number of times TLB was flushed by MVA & ASID
system.cpu.itb.flush_tlb_asid                       0                       # Number of times TLB was flushed by ASID
system.cpu.itb.flush_entries                     3013                       # Number of entries that have been flushed from TLB
system.cpu.itb.align_faults                         0                       # Number of TLB faults due to alignment restrictions
system.cpu.itb.prefetch_faults                      0                       # Number of TLB faults due to prefetch
system.cpu.itb.domain_faults                        0                       # Number of TLB faults due to domain restrictions
system.cpu.itb.perms_faults                      2175                       # Number of TLB faults due to permissions restrictions
system.cpu.itb.read_accesses                        0                       # DTB read accesses
system.cpu.itb.write_accesses                       0                       # DTB write accesses
system.cpu.itb.inst_accesses                 66073059                       # ITB inst accesses
system.cpu.itb.hits                          66060204                       # DTB hits
system.cpu.itb.misses                           12855                       # DTB misses
system.cpu.itb.accesses                      66073059                       # DTB accesses
system.cpu.numPwrStateTransitions                6076                       # Number of power state transitions
system.cpu.pwrStateClkGateDist::samples          3038                       # Distribution of time spent in the clock gated state
system.cpu.pwrStateClkGateDist::mean     887319797.866359                       # Distribution of time spent in the clock gated state
system.cpu.pwrStateClkGateDist::stdev    17420812025.908409                       # Distribution of time spent in the clock gated state
system.cpu.pwrStateClkGateDist::underflows         2966     97.63%     97.63% # Distribution of time spent in the clock gated state
system.cpu.pwrStateClkGateDist::1000-5e+10           66      2.17%     99.80% # Distribution of time spent in the clock gated state
system.cpu.pwrStateClkGateDist::1.5e+11-2e+11            1      0.03%     99.84% # Distribution of time spent in the clock gated state
system.cpu.pwrStateClkGateDist::2e+11-2.5e+11            1      0.03%     99.87% # Distribution of time spent in the clock gated state
system.cpu.pwrStateClkGateDist::2.5e+11-3e+11            1      0.03%     99.90% # Distribution of time spent in the clock gated state
system.cpu.pwrStateClkGateDist::4.5e+11-5e+11            3      0.10%    100.00% # Distribution of time spent in the clock gated state
system.cpu.pwrStateClkGateDist::min_value          501                       # Distribution of time spent in the clock gated state
system.cpu.pwrStateClkGateDist::max_value 499973328096                       # Distribution of time spent in the clock gated state
system.cpu.pwrStateClkGateDist::total            3038                       # Distribution of time spent in the clock gated state
system.cpu.pwrStateResidencyTicks::ON    132175550082                       # Cumulative time (in ticks) in various power states
system.cpu.pwrStateResidencyTicks::CLK_GATED 2695677545918                       # Cumulative time (in ticks) in various power states
system.cpu.numCycles                        264351157                       # number of cpu cycles simulated
system.cpu.numWorkItemsStarted                      0                       # number of work items this cpu started
system.cpu.numWorkItemsCompleted                    0                       # number of work items this cpu completed
system.cpu.fetch.icacheStallCycles          105007140                       # Number of cycles fetch is stalled on an Icache miss
system.cpu.fetch.Insts                      184198118                       # Number of instructions fetch has processed
system.cpu.fetch.Branches                    46859222                       # Number of branches that fetch encountered
system.cpu.fetch.predictedBranches           33067367                       # Number of branches that fetch has predicted taken
system.cpu.fetch.Cycles                     149125653                       # Number of cycles fetch has run and was not squashing or blocked
system.cpu.fetch.SquashCycles                 6062128                       # Number of cycles fetch has spent squashing
system.cpu.fetch.TlbCycles                     177509                       # Number of cycles fetch has spent waiting for tlb
system.cpu.fetch.MiscStallCycles                 8064                       # Number of cycles fetch has spent waiting on interrupts, or bad addresses, or out of MSHRs
system.cpu.fetch.PendingTrapStallCycles        342285                       # Number of stall cycles due to pending traps
system.cpu.fetch.PendingQuiesceStallCycles       500656                       # Number of stall cycles due to pending quiesce instructions
system.cpu.fetch.IcacheWaitRetryStallCycles          149                       # Number of stall cycles due to full MSHR
system.cpu.fetch.CacheLines                  66059105                       # Number of cache lines fetched
system.cpu.fetch.IcacheSquashes               1061874                       # Number of outstanding Icache misses that were squashed
system.cpu.fetch.ItlbSquashes                    6140                       # Number of outstanding ITLB misses that were squashed
system.cpu.fetch.rateDist::samples          258192520                       # Number of instructions fetched each cycle (Total)
system.cpu.fetch.rateDist::mean              0.869926                       # Number of instructions fetched each cycle (Total)
system.cpu.fetch.rateDist::stdev             1.232240                       # Number of instructions fetched each cycle (Total)
system.cpu.fetch.rateDist::underflows               0      0.00%      0.00% # Number of instructions fetched each cycle (Total)
system.cpu.fetch.rateDist::0                159207105     61.66%     61.66% # Number of instructions fetched each cycle (Total)
system.cpu.fetch.rateDist::1                 29153243     11.29%     72.95% # Number of instructions fetched each cycle (Total)
system.cpu.fetch.rateDist::2                 14041371      5.44%     78.39% # Number of instructions fetched each cycle (Total)
system.cpu.fetch.rateDist::3                 55790801     21.61%    100.00% # Number of instructions fetched each cycle (Total)
system.cpu.fetch.rateDist::overflows                0      0.00%    100.00% # Number of instructions fetched each cycle (Total)
system.cpu.fetch.rateDist::min_value                0                       # Number of instructions fetched each cycle (Total)
system.cpu.fetch.rateDist::max_value                3                       # Number of instructions fetched each cycle (Total)
system.cpu.fetch.rateDist::total            258192520                       # Number of instructions fetched each cycle (Total)
system.cpu.fetch.branchRate                  0.177261                       # Number of branch fetches per cycle
system.cpu.fetch.rate                        0.696793                       # Number of inst fetches per cycle
system.cpu.decode.IdleCycles                 78121728                       # Number of cycles decode is idle
system.cpu.decode.BlockedCycles             109293057                       # Number of cycles decode is blocked
system.cpu.decode.RunCycles                  64347286                       # Number of cycles decode is running
system.cpu.decode.UnblockCycles               3858820                       # Number of cycles decode is unblocking
system.cpu.decode.SquashCycles                2571629                       # Number of cycles decode is squashing
system.cpu.decode.BranchResolved              3404933                       # Number of times decode resolved a branch
system.cpu.decode.BranchMispred                467397                       # Number of times decode detected a branch misprediction
system.cpu.decode.DecodedInsts              157054266                       # Number of instructions handled by decode
system.cpu.decode.SquashedInsts               3508469                       # Number of squashed instructions handled by decode
system.cpu.rename.SquashCycles                2571629                       # Number of cycles rename is squashing
system.cpu.rename.IdleCycles                 83876272                       # Number of cycles rename is idle
system.cpu.rename.BlockCycles                10707182                       # Number of cycles rename is blocking
system.cpu.rename.serializeStallCycles       75777880                       # count of cycles rename stalled for serializing inst
system.cpu.rename.RunCycles                  62454434                       # Number of cycles rename is running
system.cpu.rename.UnblockCycles              22805123                       # Number of cycles rename is unblocking
system.cpu.rename.RenamedInsts              146493829                       # Number of instructions processed by rename
system.cpu.rename.SquashedInsts                914752                       # Number of squashed instructions processed by rename
system.cpu.rename.ROBFullEvents                447933                       # Number of times rename has blocked due to ROB full
system.cpu.rename.IQFullEvents                  65579                       # Number of times rename has blocked due to IQ full
system.cpu.rename.LQFullEvents                  19295                       # Number of times rename has blocked due to LQ full
system.cpu.rename.SQFullEvents               20059867                       # Number of times rename has blocked due to SQ full
system.cpu.rename.RenamedOperands           150297562                       # Number of destination operands rename has renamed
system.cpu.rename.RenameLookups             677265731                       # Number of register rename lookups that rename has made
system.cpu.rename.int_rename_lookups        164029738                       # Number of integer rename lookups
system.cpu.rename.fp_rename_lookups             11047                       # Number of floating rename lookups
system.cpu.rename.CommittedMaps             141819290                       # Number of HB maps that are committed
system.cpu.rename.UndoneMaps                  8478266                       # Number of HB maps that are undone due to squashing
system.cpu.rename.serializingInsts            2841903                       # count of serializing insts renamed
system.cpu.rename.tempSerializingInsts        2646616                       # count of temporary serializing insts renamed
system.cpu.rename.skidInsts                  13881588                       # count of insts added to the skid buffer
system.cpu.memDep0.insertedLoads             26350743                       # Number of loads inserted to the mem dependence unit.
system.cpu.memDep0.insertedStores            21216202                       # Number of stores inserted to the mem dependence unit.
system.cpu.memDep0.conflictingLoads           1694356                       # Number of conflicting loads.
system.cpu.memDep0.conflictingStores          2155521                       # Number of conflicting stores.
system.cpu.iq.iqInstsAdded                  143287156                       # Number of instructions added to the IQ (excludes non-spec)
system.cpu.iq.iqNonSpecInstsAdded             2116266                       # Number of non-speculative instructions added to the IQ
system.cpu.iq.iqInstsIssued                 143106706                       # Number of instructions issued
system.cpu.iq.iqSquashedInstsIssued            261772                       # Number of squashed instructions issued
system.cpu.iq.iqSquashedInstsExamined         8147939                       # Number of squashed instructions iterated over during squash; mainly for profiling
system.cpu.iq.iqSquashedOperandsExamined     14286308                       # Number of squashed operands that are examined and possibly removed from graph
system.cpu.iq.iqSquashedNonSpecRemoved         122067                       # Number of squashed non-spec instructions that were removed
system.cpu.iq.issued_per_cycle::samples     258192520                       # Number of insts issued each cycle
system.cpu.iq.issued_per_cycle::mean         0.554264                       # Number of insts issued each cycle
system.cpu.iq.issued_per_cycle::stdev        0.878016                       # Number of insts issued each cycle
system.cpu.iq.issued_per_cycle::underflows            0      0.00%      0.00% # Number of insts issued each cycle
system.cpu.iq.issued_per_cycle::0           169987358     65.84%     65.84% # Number of insts issued each cycle
system.cpu.iq.issued_per_cycle::1            45210540     17.51%     83.35% # Number of insts issued each cycle
[...]
system.iocache.overall_mshr_misses::realview.ide        36457                       # number of overall MSHR misses
system.iocache.overall_mshr_misses::total        36457                       # number of overall MSHR misses
system.iocache.ReadReq_mshr_miss_latency::realview.ide     17314877                       # number of ReadReq MSHR miss cycles
system.iocache.ReadReq_mshr_miss_latency::total     17314877                       # number of ReadReq MSHR miss cycles
system.iocache.WriteLineReq_mshr_miss_latency::realview.ide   2464212681                       # number of WriteLineReq MSHR miss cycles
system.iocache.WriteLineReq_mshr_miss_latency::total   2464212681                       # number of WriteLineReq MSHR miss cycles
system.iocache.demand_mshr_miss_latency::realview.ide   2481527558                       # number of demand (read+write) MSHR miss cycles
system.iocache.demand_mshr_miss_latency::total   2481527558                       # number of demand (read+write) MSHR miss cycles
system.iocache.overall_mshr_miss_latency::realview.ide   2481527558                       # number of overall MSHR miss cycles
system.iocache.overall_mshr_miss_latency::total   2481527558                       # number of overall MSHR miss cycles
system.iocache.ReadReq_mshr_miss_rate::realview.ide            1                       # mshr miss rate for ReadReq accesses
system.iocache.ReadReq_mshr_miss_rate::total            1                       # mshr miss rate for ReadReq accesses
system.iocache.WriteLineReq_mshr_miss_rate::realview.ide            1                       # mshr miss rate for WriteLineReq accesses
system.iocache.WriteLineReq_mshr_miss_rate::total            1                       # mshr miss rate for WriteLineReq accesses
system.iocache.demand_mshr_miss_rate::realview.ide            1                       # mshr miss rate for demand accesses
system.iocache.demand_mshr_miss_rate::total            1                       # mshr miss rate for demand accesses
system.iocache.overall_mshr_miss_rate::realview.ide            1                       # mshr miss rate for overall accesses
system.iocache.overall_mshr_miss_rate::total            1                       # mshr miss rate for overall accesses
system.iocache.ReadReq_avg_mshr_miss_latency::realview.ide 74312.776824                       # average ReadReq mshr miss latency
system.iocache.ReadReq_avg_mshr_miss_latency::total 74312.776824                       # average ReadReq mshr miss latency
system.iocache.WriteLineReq_avg_mshr_miss_latency::realview.ide 68027.072687                       # average WriteLineReq mshr miss latency
system.iocache.WriteLineReq_avg_mshr_miss_latency::total 68027.072687                       # average WriteLineReq mshr miss latency
system.iocache.demand_avg_mshr_miss_latency::realview.ide 68067.245193                       # average overall mshr miss latency
system.iocache.demand_avg_mshr_miss_latency::total 68067.245193                       # average overall mshr miss latency
system.iocache.overall_avg_mshr_miss_latency::realview.ide 68067.245193                       # average overall mshr miss latency
system.iocache.overall_avg_mshr_miss_latency::total 68067.245193                       # average overall mshr miss latency
system.membus.snoop_filter.tot_requests        349590                       # Total number of requests made to the snoop filter.
system.membus.snoop_filter.hit_single_requests       144366                       # Number of requests hitting in the snoop filter with a single holder of the requested data.
system.membus.snoop_filter.hit_multi_requests          482                       # Number of requests hitting in the snoop filter with multiple (>1) holders of the requested data.
system.membus.snoop_filter.tot_snoops               0                       # Total number of snoops made to the snoop filter.
system.membus.snoop_filter.hit_single_snoops            0                       # Number of snoops hitting in the snoop filter with a single holder of the requested data.
system.membus.snoop_filter.hit_multi_snoops            0                       # Number of snoops hitting in the snoop filter with multiple (>1) holders of the requested data.
system.membus.pwrStateResidencyTicks::UNDEFINED 2827853096000                       # Cumulative time (in ticks) in various power states
system.membus.trans_dist::ReadReq               34130                       # Transaction distribution
system.membus.trans_dist::ReadResp              68622                       # Transaction distribution
system.membus.trans_dist::WriteReq              27584                       # Transaction distribution
system.membus.trans_dist::WriteResp             27584                       # Transaction distribution
system.membus.trans_dist::WritebackDirty       131362                       # Transaction distribution
system.membus.trans_dist::CleanEvict             8484                       # Transaction distribution
system.membus.trans_dist::UpgradeReq              130                       # Transaction distribution
system.membus.trans_dist::SCUpgradeReq              2                       # Transaction distribution
system.membus.trans_dist::UpgradeResp               2                       # Transaction distribution
system.membus.trans_dist::ReadExReq            138891                       # Transaction distribution
system.membus.trans_dist::ReadExResp           138891                       # Transaction distribution
system.membus.trans_dist::ReadSharedReq         34493                       # Transaction distribution
system.membus.trans_dist::InvalidateReq         36224                       # Transaction distribution
system.membus.pkt_count_system.cpu.l2cache.mem_side::system.bridge.slave       105478                       # Packet count per connected master and slave (bytes)
system.membus.pkt_count_system.cpu.l2cache.mem_side::system.realview.nvmem.port           14                       # Packet count per connected master and slave (bytes)
system.membus.pkt_count_system.cpu.l2cache.mem_side::system.realview.gic.pio         2070                       # Packet count per connected master and slave (bytes)
system.membus.pkt_count_system.cpu.l2cache.mem_side::system.physmem.port       465445                       # Packet count per connected master and slave (bytes)
system.membus.pkt_count_system.cpu.l2cache.mem_side::total       573007                       # Packet count per connected master and slave (bytes)
system.membus.pkt_count_system.iocache.mem_side::system.physmem.port        72895                       # Packet count per connected master and slave (bytes)
system.membus.pkt_count_system.iocache.mem_side::total        72895                       # Packet count per connected master and slave (bytes)
system.membus.pkt_count::total                 645902                       # Packet count per connected master and slave (bytes)
system.membus.pkt_size_system.cpu.l2cache.mem_side::system.bridge.slave       159125                       # Cumulative packet size per connected master and slave (bytes)
system.membus.pkt_size_system.cpu.l2cache.mem_side::system.realview.nvmem.port          112                       # Cumulative packet size per connected master and slave (bytes)
system.membus.pkt_size_system.cpu.l2cache.mem_side::system.realview.gic.pio         4140                       # Cumulative packet size per connected master and slave (bytes)
system.membus.pkt_size_system.cpu.l2cache.mem_side::system.physmem.port     17222620                       # Cumulative packet size per connected master and slave (bytes)
system.membus.pkt_size_system.cpu.l2cache.mem_side::total     17385997                       # Cumulative packet size per connected master and slave (bytes)
system.membus.pkt_size_system.iocache.mem_side::system.physmem.port      2317120                       # Cumulative packet size per connected master and slave (bytes)
system.membus.pkt_size_system.iocache.mem_side::total      2317120                       # Cumulative packet size per connected master and slave (bytes)
system.membus.pkt_size::total                19703117                       # Cumulative packet size per connected master and slave (bytes)
system.membus.snoops                              497                       # Total snoops (count)
system.membus.snoopTraffic                      31680                       # Total snoop traffic (bytes)
system.membus.snoop_fanout::samples            271454                       # Request fanout histogram
system.membus.snoop_fanout::mean             0.017933                       # Request fanout histogram
system.membus.snoop_fanout::stdev            0.132708                       # Request fanout histogram
system.membus.snoop_fanout::underflows              0      0.00%      0.00% # Request fanout histogram
system.membus.snoop_fanout::0                  266586     98.21%     98.21% # Request fanout histogram
system.membus.snoop_fanout::1                    4868      1.79%    100.00% # Request fanout histogram
system.membus.snoop_fanout::2                       0      0.00%    100.00% # Request fanout histogram
system.membus.snoop_fanout::overflows               0      0.00%    100.00% # Request fanout histogram
system.membus.snoop_fanout::min_value               0                       # Request fanout histogram
system.membus.snoop_fanout::max_value               1                       # Request fanout histogram
system.membus.snoop_fanout::total              271454                       # Request fanout histogram
system.membus.reqLayer0.occupancy            84464500                       # Layer occupancy (ticks)
system.membus.reqLayer0.utilization               0.0                       # Layer utilization (%)
system.membus.reqLayer1.occupancy                9000                       # Layer occupancy (ticks)
system.membus.reqLayer1.utilization               0.0                       # Layer utilization (%)
system.membus.reqLayer2.occupancy             1723499                       # Layer occupancy (ticks)
system.membus.reqLayer2.utilization               0.0                       # Layer utilization (%)
system.membus.reqLayer5.occupancy           908168519                       # Layer occupancy (ticks)
system.membus.reqLayer5.utilization               0.0                       # Layer utilization (%)
system.membus.respLayer2.occupancy         1012308500                       # Layer occupancy (ticks)
system.membus.respLayer2.utilization              0.0                       # Layer utilization (%)
system.membus.respLayer3.occupancy            1273123                       # Layer occupancy (ticks)
system.membus.respLayer3.utilization              0.0                       # Layer utilization (%)
system.membus.badaddr_responder.pwrStateResidencyTicks::UNDEFINED 2827853096000                       # Cumulative time (in ticks) in various power states
system.realview.aaci_fake.pwrStateResidencyTicks::UNDEFINED 2827853096000                       # Cumulative time (in ticks) in various power states
system.realview.pci_host.pwrStateResidencyTicks::UNDEFINED 2827853096000                       # Cumulative time (in ticks) in various power states
system.realview.cf_ctrl.pwrStateResidencyTicks::UNDEFINED 2827853096000                       # Cumulative time (in ticks) in various power states
system.realview.gic.pwrStateResidencyTicks::UNDEFINED 2827853096000                       # Cumulative time (in ticks) in various power states
system.realview.clcd.pwrStateResidencyTicks::UNDEFINED 2827853096000                       # Cumulative time (in ticks) in various power states
system.realview.realview_io.pwrStateResidencyTicks::UNDEFINED 2827853096000                       # Cumulative time (in ticks) in various power states
system.realview.dcc.osc_cpu.clock               16667                       # Clock period in ticks
system.realview.dcc.osc_ddr.clock               25000                       # Clock period in ticks
system.realview.dcc.osc_hsbm.clock              25000                       # Clock period in ticks
system.realview.dcc.osc_pxl.clock               42105                       # Clock period in ticks
system.realview.dcc.osc_smb.clock               20000                       # Clock period in ticks
system.realview.dcc.osc_sys.clock               16667                       # Clock period in ticks
system.realview.energy_ctrl.pwrStateResidencyTicks::UNDEFINED 2827853096000                       # Cumulative time (in ticks) in various power states
system.realview.ethernet.pwrStateResidencyTicks::UNDEFINED 2827853096000                       # Cumulative time (in ticks) in various power states
system.realview.ethernet.descDMAReads               0                       # Number of descriptors the device read w/ DMA
system.realview.ethernet.descDMAWrites              0                       # Number of descriptors the device wrote w/ DMA
system.realview.ethernet.descDmaReadBytes            0                       # number of descriptor bytes read w/ DMA
system.realview.ethernet.descDmaWriteBytes            0                       # number of descriptor bytes write w/ DMA
system.realview.ethernet.postedSwi                  0                       # number of software interrupts posted to CPU
system.realview.ethernet.coalescedSwi             nan                       # average number of Swi's coalesced into each post
system.realview.ethernet.totalSwi                   0                       # total number of Swi written to ISR
system.realview.ethernet.postedRxIdle               0                       # number of rxIdle interrupts posted to CPU
system.realview.ethernet.coalescedRxIdle          nan                       # average number of RxIdle's coalesced into each post
system.realview.ethernet.totalRxIdle                0                       # total number of RxIdle written to ISR
system.realview.ethernet.postedRxOk                 0                       # number of RxOk interrupts posted to CPU
system.realview.ethernet.coalescedRxOk            nan                       # average number of RxOk's coalesced into each post
system.realview.ethernet.totalRxOk                  0                       # total number of RxOk written to ISR
system.realview.ethernet.postedRxDesc               0                       # number of RxDesc interrupts posted to CPU
system.realview.ethernet.coalescedRxDesc          nan                       # average number of RxDesc's coalesced into each post
system.realview.ethernet.totalRxDesc                0                       # total number of RxDesc written to ISR
system.realview.ethernet.postedTxOk                 0                       # number of TxOk interrupts posted to CPU
system.realview.ethernet.coalescedTxOk            nan                       # average number of TxOk's coalesced into each post
system.realview.ethernet.totalTxOk                  0                       # total number of TxOk written to ISR
system.realview.ethernet.postedTxIdle               0                       # number of TxIdle interrupts posted to CPU
system.realview.ethernet.coalescedTxIdle          nan                       # average number of TxIdle's coalesced into each post
system.realview.ethernet.totalTxIdle                0                       # total number of TxIdle written to ISR
system.realview.ethernet.postedTxDesc               0                       # number of TxDesc interrupts posted to CPU
system.realview.ethernet.coalescedTxDesc          nan                       # average number of TxDesc's coalesced into each post
system.realview.ethernet.totalTxDesc                0                       # total number of TxDesc written to ISR
system.realview.ethernet.postedRxOrn                0                       # number of RxOrn posted to CPU
system.realview.ethernet.coalescedRxOrn           nan                       # average number of RxOrn's coalesced into each post
system.realview.ethernet.totalRxOrn                 0                       # total number of RxOrn written to ISR
system.realview.ethernet.coalescedTotal           nan                       # average number of interrupts coalesced into each post
system.realview.ethernet.postedInterrupts            0                       # number of posts to CPU
system.realview.ethernet.droppedPackets             0                       # number of packets dropped
system.realview.hdlcd.pwrStateResidencyTicks::UNDEFINED 2827853096000                       # Cumulative time (in ticks) in various power states
system.realview.ide.pwrStateResidencyTicks::UNDEFINED 2827853096000                       # Cumulative time (in ticks) in various power states
system.realview.kmi0.pwrStateResidencyTicks::UNDEFINED 2827853096000                       # Cumulative time (in ticks) in various power states
system.realview.kmi1.pwrStateResidencyTicks::UNDEFINED 2827853096000                       # Cumulative time (in ticks) in various power states
system.realview.l2x0_fake.pwrStateResidencyTicks::UNDEFINED 2827853096000                       # Cumulative time (in ticks) in various power states
system.realview.lan_fake.pwrStateResidencyTicks::UNDEFINED 2827853096000                       # Cumulative time (in ticks) in various power states
system.realview.local_cpu_timer.pwrStateResidencyTicks::UNDEFINED 2827853096000                       # Cumulative time (in ticks) in various power states
system.realview.mcc.osc_clcd.clock              42105                       # Clock period in ticks
system.realview.mcc.osc_mcc.clock               20000                       # Clock period in ticks
system.realview.mcc.osc_peripheral.clock        41667                       # Clock period in ticks
system.realview.mcc.osc_system_bus.clock        41667                       # Clock period in ticks
system.realview.mmc_fake.pwrStateResidencyTicks::UNDEFINED 2827853096000                       # Cumulative time (in ticks) in various power states
system.realview.rtc.pwrStateResidencyTicks::UNDEFINED 2827853096000                       # Cumulative time (in ticks) in various power states
system.realview.sp810_fake.pwrStateResidencyTicks::UNDEFINED 2827853096000                       # Cumulative time (in ticks) in various power states
system.realview.timer0.pwrStateResidencyTicks::UNDEFINED 2827853096000                       # Cumulative time (in ticks) in various power states
system.realview.timer1.pwrStateResidencyTicks::UNDEFINED 2827853096000                       # Cumulative time (in ticks) in various power states
system.realview.uart.pwrStateResidencyTicks::UNDEFINED 2827853096000                       # Cumulative time (in ticks) in various power states
system.realview.uart1_fake.pwrStateResidencyTicks::UNDEFINED 2827853096000                       # Cumulative time (in ticks) in various power states
system.realview.uart2_fake.pwrStateResidencyTicks::UNDEFINED 2827853096000                       # Cumulative time (in ticks) in various power states
system.realview.uart3_fake.pwrStateResidencyTicks::UNDEFINED 2827853096000                       # Cumulative time (in ticks) in various power states
system.realview.usb_fake.pwrStateResidencyTicks::UNDEFINED 2827853096000                       # Cumulative time (in ticks) in various power states
system.realview.vgic.pwrStateResidencyTicks::UNDEFINED 2827853096000                       # Cumulative time (in ticks) in various power states
system.realview.watchdog_fake.pwrStateResidencyTicks::UNDEFINED 2827853096000                       # Cumulative time (in ticks) in various power states
system.cpu.kern.inst.arm                            0                       # number of arm instructions executed
system.cpu.kern.inst.quiesce                     3038                       # number of quiesce instructions executed

---------- End Simulation Statistics   ----------
