
---------- Begin Simulation Statistics ----------
sim_seconds                                  0.085008                       # Number of seconds simulated
sim_ticks                                 85008313500                       # Number of ticks simulated
final_tick                                85008313500                       # Number of ticks from beginning of simulation (restored from checkpoints and never reset)
sim_freq                                 1000000000000                       # Frequency of simulated ticks
host_inst_rate                                 130085                       # Simulator instruction rate (inst/s)
host_op_rate                                   137131                       # Simulator op (including micro ops) rate (op/s)
host_tick_rate                               64179279                       # Simulator tick rate (ticks/s)
host_mem_usage                                 313784                       # Number of bytes of host memory used
host_seconds                                  1324.54                       # Real time elapsed on the host
sim_insts                                   172303021                       # Number of instructions simulated
sim_ops                                     181635953                       # Number of ops (including micro ops) simulated
system.voltage_domain.voltage                       1                       # Voltage in Volts
system.clk_domain.clock                          1000                       # Clock period in ticks
system.physmem.bytes_read::cpu.inst            127168                       # Number of bytes read from this memory
system.physmem.bytes_read::cpu.data             48000                       # Number of bytes read from this memory
system.physmem.bytes_read::cpu.l2cache.prefetcher        71360                       # Number of bytes read from this memory
system.physmem.bytes_read::total               246528                       # Number of bytes read from this memory
system.physmem.bytes_inst_read::cpu.inst       127168                       # Number of instructions bytes read from this memory
system.physmem.bytes_inst_read::total          127168                       # Number of instructions bytes read from this memory
system.physmem.num_reads::cpu.inst               1987                       # Number of read requests responded to by this memory
system.physmem.num_reads::cpu.data                750                       # Number of read requests responded to by this memory
system.physmem.num_reads::cpu.l2cache.prefetcher         1115                       # Number of read requests responded to by this memory
system.physmem.num_reads::total                  3852                       # Number of read requests responded to by this memory
system.physmem.bw_read::cpu.inst              1495948                       # Total read bandwidth from this memory (bytes/s)
system.physmem.bw_read::cpu.data               564651                       # Total read bandwidth from this memory (bytes/s)
system.physmem.bw_read::cpu.l2cache.prefetcher       839447                       # Total read bandwidth from this memory (bytes/s)
system.physmem.bw_read::total                 2900046                       # Total read bandwidth from this memory (bytes/s)
system.physmem.bw_inst_read::cpu.inst         1495948                       # Instruction read bandwidth from this memory (bytes/s)
system.physmem.bw_inst_read::total            1495948                       # Instruction read bandwidth from this memory (bytes/s)
system.physmem.bw_total::cpu.inst             1495948                       # Total bandwidth to/from this memory (bytes/s)
system.physmem.bw_total::cpu.data              564651                       # Total bandwidth to/from this memory (bytes/s)
system.physmem.bw_total::cpu.l2cache.prefetcher       839447                       # Total bandwidth to/from this memory (bytes/s)
system.physmem.bw_total::total                2900046                       # Total bandwidth to/from this memory (bytes/s)
system.physmem.readReqs                          3852                       # Number of read requests accepted
system.physmem.writeReqs                            0                       # Number of write requests accepted
system.physmem.readBursts                        3852                       # Number of DRAM read bursts, including those serviced by the write queue
system.physmem.writeBursts                          0                       # Number of DRAM write bursts, including those merged in the write queue
system.physmem.bytesReadDRAM                   246528                       # Total number of bytes read from DRAM
system.physmem.bytesReadWrQ                         0                       # Total number of bytes read from write queue
system.physmem.bytesWritten                         0                       # Total number of bytes written to DRAM
system.physmem.bytesReadSys                    246528                       # Total read bytes from the system interface side
system.physmem.bytesWrittenSys                      0                       # Total written bytes from the system interface side
system.physmem.servicedByWrQ                        0                       # Number of DRAM read bursts serviced by the write queue
system.physmem.mergedWrBursts                       0                       # Number of DRAM write bursts merged with an existing one
system.physmem.neitherReadNorWriteReqs              0                       # Number of requests that are neither read nor write
system.physmem.perBankRdBursts::0                 309                       # Per bank write bursts
system.physmem.perBankRdBursts::1                 223                       # Per bank write bursts
system.physmem.perBankRdBursts::2                 142                       # Per bank write bursts
system.physmem.perBankRdBursts::3                 310                       # Per bank write bursts
system.physmem.perBankRdBursts::4                 300                       # Per bank write bursts
system.physmem.perBankRdBursts::5                 302                       # Per bank write bursts
system.physmem.perBankRdBursts::6                 262                       # Per bank write bursts
system.physmem.perBankRdBursts::7                 237                       # Per bank write bursts
system.physmem.perBankRdBursts::8                 252                       # Per bank write bursts
system.physmem.perBankRdBursts::9                 218                       # Per bank write bursts
system.physmem.perBankRdBursts::10                293                       # Per bank write bursts
system.physmem.perBankRdBursts::11                194                       # Per bank write bursts
system.physmem.perBankRdBursts::12                193                       # Per bank write bursts
system.physmem.perBankRdBursts::13                212                       # Per bank write bursts
system.physmem.perBankRdBursts::14                211                       # Per bank write bursts
system.physmem.perBankRdBursts::15                194                       # Per bank write bursts
system.physmem.perBankWrBursts::0                   0                       # Per bank write bursts
system.physmem.perBankWrBursts::1                   0                       # Per bank write bursts
system.physmem.perBankWrBursts::2                   0                       # Per bank write bursts
system.physmem.perBankWrBursts::3                   0                       # Per bank write bursts
system.physmem.perBankWrBursts::4                   0                       # Per bank write bursts
system.physmem.perBankWrBursts::5                   0                       # Per bank write bursts
system.physmem.perBankWrBursts::6                   0                       # Per bank write bursts
system.physmem.perBankWrBursts::7                   0                       # Per bank write bursts
system.physmem.perBankWrBursts::8                   0                       # Per bank write bursts
system.physmem.perBankWrBursts::9                   0                       # Per bank write bursts
system.physmem.perBankWrBursts::10                  0                       # Per bank write bursts
system.physmem.perBankWrBursts::11                  0                       # Per bank write bursts
system.physmem.perBankWrBursts::12                  0                       # Per bank write bursts
system.physmem.perBankWrBursts::13                  0                       # Per bank write bursts
system.physmem.perBankWrBursts::14                  0                       # Per bank write bursts
system.physmem.perBankWrBursts::15                  0                       # Per bank write bursts
system.physmem.numRdRetry                           0                       # Number of times read queue was full causing retry
system.physmem.numWrRetry                           0                       # Number of times write queue was full causing retry
system.physmem.totGap                     85008170000                       # Total gap between requests
system.physmem.readPktSize::0                       0                       # Read request sizes (log2)
system.physmem.readPktSize::1                       0                       # Read request sizes (log2)
system.physmem.readPktSize::2                       0                       # Read request sizes (log2)
system.physmem.readPktSize::3                       0                       # Read request sizes (log2)
system.physmem.readPktSize::4                       0                       # Read request sizes (log2)
system.physmem.readPktSize::5                       0                       # Read request sizes (log2)
system.physmem.readPktSize::6                    3852                       # Read request sizes (log2)
system.physmem.writePktSize::0                      0                       # Write request sizes (log2)
system.physmem.writePktSize::1                      0                       # Write request sizes (log2)
system.physmem.writePktSize::2                      0                       # Write request sizes (log2)
system.physmem.writePktSize::3                      0                       # Write request sizes (log2)
system.physmem.writePktSize::4                      0                       # Write request sizes (log2)
system.physmem.writePktSize::5                      0                       # Write request sizes (log2)
system.physmem.writePktSize::6                      0                       # Write request sizes (log2)
system.physmem.rdQLenPdf::0                      2522                       # What read queue length does an incoming req see
system.physmem.rdQLenPdf::1                       895                       # What read queue length does an incoming req see
system.physmem.rdQLenPdf::2                       165                       # What read queue length does an incoming req see
system.physmem.rdQLenPdf::3                        83                       # What read queue length does an incoming req see
system.physmem.rdQLenPdf::4                        58                       # What read queue length does an incoming req see
system.physmem.rdQLenPdf::5                        35                       # What read queue length does an incoming req see
system.physmem.rdQLenPdf::6                        31                       # What read queue length does an incoming req see
system.physmem.rdQLenPdf::7                        30                       # What read queue length does an incoming req see
system.physmem.rdQLenPdf::8                        29                       # What read queue length does an incoming req see
system.physmem.rdQLenPdf::9                         3                       # What read queue length does an incoming req see
system.physmem.rdQLenPdf::10                        1                       # What read queue length does an incoming req see
system.physmem.rdQLenPdf::11                        0                       # What read queue length does an incoming req see
system.physmem.rdQLenPdf::12                        0                       # What read queue length does an incoming req see
system.physmem.rdQLenPdf::13                        0                       # What read queue length does an incoming req see
system.physmem.rdQLenPdf::14                        0                       # What read queue length does an incoming req see
system.physmem.rdQLenPdf::15                        0                       # What read queue length does an incoming req see
system.physmem.rdQLenPdf::16                        0                       # What read queue length does an incoming req see
system.physmem.rdQLenPdf::17                        0                       # What read queue length does an incoming req see
system.physmem.rdQLenPdf::18                        0                       # What read queue length does an incoming req see
system.physmem.rdQLenPdf::19                        0                       # What read queue length does an incoming req see
system.physmem.rdQLenPdf::20                        0                       # What read queue length does an incoming req see
system.physmem.rdQLenPdf::21                        0                       # What read queue length does an incoming req see
system.physmem.rdQLenPdf::22                        0                       # What read queue length does an incoming req see
system.physmem.rdQLenPdf::23                        0                       # What read queue length does an incoming req see
system.physmem.rdQLenPdf::24                        0                       # What read queue length does an incoming req see
system.physmem.rdQLenPdf::25                        0                       # What read queue length does an incoming req see
system.physmem.rdQLenPdf::26                        0                       # What read queue length does an incoming req see
system.physmem.rdQLenPdf::27                        0                       # What read queue length does an incoming req see
system.physmem.rdQLenPdf::28                        0                       # What read queue length does an incoming req see
system.physmem.rdQLenPdf::29                        0                       # What read queue length does an incoming req see
system.physmem.rdQLenPdf::30                        0                       # What read queue length does an incoming req see
system.physmem.rdQLenPdf::31                        0                       # What read queue length does an incoming req see
system.physmem.wrQLenPdf::0                         0                       # What write queue length does an incoming req see
system.physmem.wrQLenPdf::1                         0                       # What write queue length does an incoming req see
system.physmem.wrQLenPdf::2                         0                       # What write queue length does an incoming req see
system.physmem.wrQLenPdf::3                         0                       # What write queue length does an incoming req see
system.physmem.wrQLenPdf::4                         0                       # What write queue length does an incoming req see
system.physmem.wrQLenPdf::5                         0                       # What write queue length does an incoming req see
system.physmem.wrQLenPdf::6                         0                       # What write queue length does an incoming req see
system.physmem.wrQLenPdf::7                         0                       # What write queue length does an incoming req see
system.physmem.wrQLenPdf::8                         0                       # What write queue length does an incoming req see
system.physmem.wrQLenPdf::9                         0                       # What write queue length does an incoming req see
system.physmem.wrQLenPdf::10                        0                       # What write queue length does an incoming req see
system.physmem.wrQLenPdf::11                        0                       # What write queue length does an incoming req see
system.physmem.wrQLenPdf::12                        0                       # What write queue length does an incoming req see
system.physmem.wrQLenPdf::13                        0                       # What write queue length does an incoming req see
system.physmem.wrQLenPdf::14                        0                       # What write queue length does an incoming req see
system.physmem.wrQLenPdf::15                        0                       # What write queue length does an incoming req see
system.physmem.wrQLenPdf::16                        0                       # What write queue length does an incoming req see
system.physmem.wrQLenPdf::17                        0                       # What write queue length does an incoming req see
system.physmem.wrQLenPdf::18                        0                       # What write queue length does an incoming req see
system.physmem.wrQLenPdf::19                        0                       # What write queue length does an incoming req see
system.physmem.wrQLenPdf::20                        0                       # What write queue length does an incoming req see
system.physmem.wrQLenPdf::21                        0                       # What write queue length does an incoming req see
system.physmem.wrQLenPdf::22                        0                       # What write queue length does an incoming req see
system.physmem.wrQLenPdf::23                        0                       # What write queue length does an incoming req see
system.physmem.wrQLenPdf::24                        0                       # What write queue length does an incoming req see
system.physmem.wrQLenPdf::25                        0                       # What write queue length does an incoming req see
system.physmem.wrQLenPdf::26                        0                       # What write queue length does an incoming req see
system.physmem.wrQLenPdf::27                        0                       # What write queue length does an incoming req see
system.physmem.wrQLenPdf::28                        0                       # What write queue length does an incoming req see
system.physmem.wrQLenPdf::29                        0                       # What write queue length does an incoming req see
system.physmem.wrQLenPdf::30                        0                       # What write queue length does an incoming req see
system.physmem.wrQLenPdf::31                        0                       # What write queue length does an incoming req see
system.physmem.wrQLenPdf::32                        0                       # What write queue length does an incoming req see
system.physmem.wrQLenPdf::33                        0                       # What write queue length does an incoming req see
system.physmem.wrQLenPdf::34                        0                       # What write queue length does an incoming req see
system.physmem.wrQLenPdf::35                        0                       # What write queue length does an incoming req see
system.physmem.wrQLenPdf::36                        0                       # What write queue length does an incoming req see
system.physmem.wrQLenPdf::37                        0                       # What write queue length does an incoming req see
system.physmem.wrQLenPdf::38                        0                       # What write queue length does an incoming req see
system.physmem.wrQLenPdf::39                        0                       # What write queue length does an incoming req see
system.physmem.wrQLenPdf::40                        0                       # What write queue length does an incoming req see
system.physmem.wrQLenPdf::41                        0                       # What write queue length does an incoming req see
system.physmem.wrQLenPdf::42                        0                       # What write queue length does an incoming req see
system.physmem.wrQLenPdf::43                        0                       # What write queue length does an incoming req see
system.physmem.wrQLenPdf::44                        0                       # What write queue length does an incoming req see
system.physmem.wrQLenPdf::45                        0                       # What write queue length does an incoming req see
system.physmem.wrQLenPdf::46                        0                       # What write queue length does an incoming req see
system.physmem.wrQLenPdf::47                        0                       # What write queue length does an incoming req see
system.physmem.wrQLenPdf::48                        0                       # What write queue length does an incoming req see
system.physmem.wrQLenPdf::49                        0                       # What write queue length does an incoming req see
system.physmem.wrQLenPdf::50                        0                       # What write queue length does an incoming req see
system.physmem.wrQLenPdf::51                        0                       # What write queue length does an incoming req see
system.physmem.wrQLenPdf::52                        0                       # What write queue length does an incoming req see
system.physmem.wrQLenPdf::53                        0                       # What write queue length does an incoming req see
system.physmem.wrQLenPdf::54                        0                       # What write queue length does an incoming req see
system.physmem.wrQLenPdf::55                        0                       # What write queue length does an incoming req see
system.physmem.wrQLenPdf::56                        0                       # What write queue length does an incoming req see
system.physmem.wrQLenPdf::57                        0                       # What write queue length does an incoming req see
system.physmem.wrQLenPdf::58                        0                       # What write queue length does an incoming req see
system.physmem.wrQLenPdf::59                        0                       # What write queue length does an incoming req see
system.physmem.wrQLenPdf::60                        0                       # What write queue length does an incoming req see
system.physmem.wrQLenPdf::61                        0                       # What write queue length does an incoming req see
system.physmem.wrQLenPdf::62                        0                       # What write queue length does an incoming req see
system.physmem.wrQLenPdf::63                        0                       # What write queue length does an incoming req see
system.physmem.bytesPerActivate::samples          760                       # Bytes accessed per row activation
system.physmem.bytesPerActivate::mean      321.936842                       # Bytes accessed per row activation
system.physmem.bytesPerActivate::gmean     203.366462                       # Bytes accessed per row activation
system.physmem.bytesPerActivate::stdev     304.047629                       # Bytes accessed per row activation
system.physmem.bytesPerActivate::0-127            237     31.18%     31.18% # Bytes accessed per row activation
system.physmem.bytesPerActivate::128-255          182     23.95%     55.13% # Bytes accessed per row activation
system.physmem.bytesPerActivate::256-383           69      9.08%     64.21% # Bytes accessed per row activation
system.physmem.bytesPerActivate::384-511           96     12.63%     76.84% # Bytes accessed per row activation
system.physmem.bytesPerActivate::512-639           35      4.61%     81.45% # Bytes accessed per row activation
system.physmem.bytesPerActivate::640-767           45      5.92%     87.37% # Bytes accessed per row activation
system.physmem.bytesPerActivate::768-895           18      2.37%     89.74% # Bytes accessed per row activation
system.physmem.bytesPerActivate::896-1023           14      1.84%     91.58% # Bytes accessed per row activation
system.physmem.bytesPerActivate::1024-1151           64      8.42%    100.00% # Bytes accessed per row activation
system.physmem.bytesPerActivate::total            760                       # Bytes accessed per row activation
system.physmem.totQLat                       36289181                       # Total ticks spent queuing
system.physmem.totMemAccLat                 108514181                       # Total ticks spent from burst creation until serviced by the DRAM
system.physmem.totBusLat                     19260000                       # Total ticks spent in databus transfers
system.physmem.avgQLat                        9420.87                       # Average queueing delay per DRAM burst
system.physmem.avgBusLat                      5000.00                       # Average bus latency per DRAM burst
system.physmem.avgMemAccLat                  28170.87                       # Average memory access latency per DRAM burst
system.physmem.avgRdBW                           2.90                       # Average DRAM read bandwidth in MiByte/s
system.physmem.avgWrBW                           0.00                       # Average achieved write bandwidth in MiByte/s
system.physmem.avgRdBWSys                        2.90                       # Average system read bandwidth in MiByte/s
system.physmem.avgWrBWSys                        0.00                       # Average system write bandwidth in MiByte/s
system.physmem.peakBW                        12800.00                       # Theoretical peak bandwidth in MiByte/s
system.physmem.busUtil                           0.02                       # Data bus utilization in percentage
system.physmem.busUtilRead                       0.02                       # Data bus utilization in percentage for reads
system.physmem.busUtilWrite                      0.00                       # Data bus utilization in percentage for writes
system.physmem.avgRdQLen                         3.02                       # Average read queue length when enqueuing
system.physmem.avgWrQLen                         0.00                       # Average write queue length when enqueuing
system.physmem.readRowHits                       3085                       # Number of row buffer hits during reads
system.physmem.writeRowHits                         0                       # Number of row buffer hits during writes
system.physmem.readRowHitRate                   80.09                       # Row buffer hit rate for reads
system.physmem.writeRowHitRate                    nan                       # Row buffer hit rate for writes
system.physmem.avgGap                     22068579.96                       # Average gap between requests
system.physmem.pageHitRate                      80.09                       # Row buffer hit rate, read and write combined
system.physmem_0.actEnergy                    2721600                       # Energy for activate commands per rank (pJ)
system.physmem_0.preEnergy                    1485000                       # Energy for precharge commands per rank (pJ)
system.physmem_0.readEnergy                  16239600                       # Energy for read commands per rank (pJ)
system.physmem_0.writeEnergy                        0                       # Energy for write commands per rank (pJ)
system.physmem_0.refreshEnergy             5551949520                       # Energy for refresh commands per rank (pJ)
system.physmem_0.actBackEnergy             2339255205                       # Energy for active background per rank (pJ)
system.physmem_0.preBackEnergy            48949672500                       # Energy for precharge background per rank (pJ)
system.physmem_0.totalEnergy              56861323425                       # Total energy per rank (pJ)
system.physmem_0.averagePower              668.935094                       # Core power per rank (mW)
system.physmem_0.memoryStateTime::IDLE    81434793722                       # Time in different power states
system.physmem_0.memoryStateTime::REF      2838420000                       # Time in different power states
system.physmem_0.memoryStateTime::PRE_PDN            0                       # Time in different power states
system.physmem_0.memoryStateTime::ACT       733662278                       # Time in different power states
system.physmem_0.memoryStateTime::ACT_PDN            0                       # Time in different power states
system.physmem_1.actEnergy                    3001320                       # Energy for activate commands per rank (pJ)
system.physmem_1.preEnergy                    1637625                       # Energy for precharge commands per rank (pJ)
system.physmem_1.readEnergy                  13540800                       # Energy for read commands per rank (pJ)
system.physmem_1.writeEnergy                        0                       # Energy for write commands per rank (pJ)
system.physmem_1.refreshEnergy             5551949520                       # Energy for refresh commands per rank (pJ)
system.physmem_1.actBackEnergy             2301878880                       # Energy for active background per rank (pJ)
system.physmem_1.preBackEnergy            48982450500                       # Energy for precharge background per rank (pJ)
system.physmem_1.totalEnergy              56854458645                       # Total energy per rank (pJ)
system.physmem_1.averagePower              668.854443                       # Core power per rank (mW)
system.physmem_1.memoryStateTime::IDLE    81486384408                       # Time in different power states
system.physmem_1.memoryStateTime::REF      2838420000                       # Time in different power states
system.physmem_1.memoryStateTime::PRE_PDN            0                       # Time in different power states
system.physmem_1.memoryStateTime::ACT       678791592                       # Time in different power states
system.physmem_1.memoryStateTime::ACT_PDN            0                       # Time in different power states
system.cpu.branchPred.lookups                85929478                       # Number of BP lookups
system.cpu.branchPred.condPredicted          68409655                       # Number of conditional branches predicted
system.cpu.branchPred.condIncorrect           6016514                       # Number of conditional branches incorrect
system.cpu.branchPred.BTBLookups             40103730                       # Number of BTB lookups
system.cpu.branchPred.BTBHits                39019729                       # Number of BTB hits
system.cpu.branchPred.BTBCorrect                    0                       # Number of correct BTB predictions (this stat may not work properly.
system.cpu.branchPred.BTBHitPct             97.297007                       # BTB Hit Percentage
system.cpu.branchPred.usedRAS                 3701200                       # Number of times the RAS was used to get a target.
system.cpu.branchPred.RASInCorrect              81899                       # Number of incorrect RAS predictions.
system.cpu_clk_domain.clock                       500                       # Clock period in ticks
system.cpu.dstage2_mmu.stage2_tlb.walker.walks            0                       # Table walker walks requested
system.cpu.dstage2_mmu.stage2_tlb.walker.walkRequestOrigin_Requested::Data            0                       # Table walker requests started/completed, data/inst
system.cpu.dstage2_mmu.stage2_tlb.walker.walkRequestOrigin_Requested::Inst            0                       # Table walker requests started/completed, data/inst
system.cpu.dstage2_mmu.stage2_tlb.walker.walkRequestOrigin_Requested::total            0                       # Table walker requests started/completed, data/inst
system.cpu.dstage2_mmu.stage2_tlb.walker.walkRequestOrigin_Completed::Data            0                       # Table walker requests started/completed, data/inst
system.cpu.dstage2_mmu.stage2_tlb.walker.walkRequestOrigin_Completed::Inst            0                       # Table walker requests started/completed, data/inst
system.cpu.dstage2_mmu.stage2_tlb.walker.walkRequestOrigin_Completed::total            0                       # Table walker requests started/completed, data/inst
system.cpu.dstage2_mmu.stage2_tlb.walker.walkRequestOrigin::total            0                       # Table walker requests started/completed, data/inst
system.cpu.dstage2_mmu.stage2_tlb.inst_hits            0                       # ITB inst hits
system.cpu.dstage2_mmu.stage2_tlb.inst_misses            0                       # ITB inst misses
system.cpu.dstage2_mmu.stage2_tlb.read_hits            0                       # DTB read hits
system.cpu.dstage2_mmu.stage2_tlb.read_misses            0                       # DTB read misses
system.cpu.dstage2_mmu.stage2_tlb.write_hits            0                       # DTB write hits
system.cpu.dstage2_mmu.stage2_tlb.write_misses            0                       # DTB write misses
system.cpu.dstage2_mmu.stage2_tlb.flush_tlb            0                       # Number of times complete TLB was flushed
system.cpu.dstage2_mmu.stage2_tlb.flush_tlb_mva            0                       # Number of times TLB was flushed by MVA
system.cpu.dstage2_mmu.stage2_tlb.flush_tlb_mva_asid            0                       # Number of times TLB was flushed by MVA & ASID
system.cpu.dstage2_mmu.stage2_tlb.flush_tlb_asid            0                       # Number of times TLB was flushed by ASID
system.cpu.dstage2_mmu.stage2_tlb.flush_entries            0                       # Number of entries that have been flushed from TLB
system.cpu.dstage2_mmu.stage2_tlb.align_faults            0                       # Number of TLB faults due to alignment restrictions
system.cpu.dstage2_mmu.stage2_tlb.prefetch_faults            0                       # Number of TLB faults due to prefetch
system.cpu.dstage2_mmu.stage2_tlb.domain_faults            0                       # Number of TLB faults due to domain restrictions
system.cpu.dstage2_mmu.stage2_tlb.perms_faults            0                       # Number of TLB faults due to permissions restrictions
system.cpu.dstage2_mmu.stage2_tlb.read_accesses            0                       # DTB read accesses
system.cpu.dstage2_mmu.stage2_tlb.write_accesses            0                       # DTB write accesses
system.cpu.dstage2_mmu.stage2_tlb.inst_accesses            0                       # ITB inst accesses
system.cpu.dstage2_mmu.stage2_tlb.hits              0                       # DTB hits
system.cpu.dstage2_mmu.stage2_tlb.misses            0                       # DTB misses
system.cpu.dstage2_mmu.stage2_tlb.accesses            0                       # DTB accesses
system.cpu.dtb.walker.walks                         0                       # Table walker walks requested
system.cpu.dtb.walker.walkRequestOrigin_Requested::Data            0                       # Table walker requests started/completed, data/inst
system.cpu.dtb.walker.walkRequestOrigin_Requested::Inst            0                       # Table walker requests started/completed, data/inst
system.cpu.dtb.walker.walkRequestOrigin_Requested::total            0                       # Table walker requests started/completed, data/inst
system.cpu.dtb.walker.walkRequestOrigin_Completed::Data            0                       # Table walker requests started/completed, data/inst
system.cpu.dtb.walker.walkRequestOrigin_Completed::Inst            0                       # Table walker requests started/completed, data/inst
system.cpu.dtb.walker.walkRequestOrigin_Completed::total            0                       # Table walker requests started/completed, data/inst
system.cpu.dtb.walker.walkRequestOrigin::total            0                       # Table walker requests started/completed, data/inst
system.cpu.dtb.inst_hits                            0                       # ITB inst hits
system.cpu.dtb.inst_misses                          0                       # ITB inst misses
system.cpu.dtb.read_hits                            0                       # DTB read hits
system.cpu.dtb.read_misses                          0                       # DTB read misses
system.cpu.dtb.write_hits                           0                       # DTB write hits
system.cpu.dtb.write_misses                         0                       # DTB write misses
system.cpu.dtb.flush_tlb                            0                       # Number of times complete TLB was flushed
system.cpu.dtb.flush_tlb_mva                        0                       # Number of times TLB was flushed by MVA
system.cpu.dtb.flush_tlb_mva_asid                   0                       # Number of times TLB was flushed by MVA & ASID
system.cpu.dtb.flush_tlb_asid                       0                       # Number of times TLB was flushed by ASID
system.cpu.dtb.flush_entries                        0                       # Number of entries that have been flushed from TLB
system.cpu.dtb.align_faults                         0                       # Number of TLB faults due to alignment restrictions
system.cpu.dtb.prefetch_faults                      0                       # Number of TLB faults due to prefetch
system.cpu.dtb.domain_faults                        0                       # Number of TLB faults due to domain restrictions
system.cpu.dtb.perms_faults                         0                       # Number of TLB faults due to permissions restrictions
system.cpu.dtb.read_accesses                        0                       # DTB read accesses
system.cpu.dtb.write_accesses                       0                       # DTB write accesses
system.cpu.dtb.inst_accesses                        0                       # ITB inst accesses
system.cpu.dtb.hits                                 0                       # DTB hits
system.cpu.dtb.misses                               0                       # DTB misses
system.cpu.dtb.accesses                             0                       # DTB accesses
system.cpu.istage2_mmu.stage2_tlb.walker.walks            0                       # Table walker walks requested
system.cpu.istage2_mmu.stage2_tlb.walker.walkRequestOrigin_Requested::Data            0                       # Table walker requests started/completed, data/inst
system.cpu.istage2_mmu.stage2_tlb.walker.walkRequestOrigin_Requested::Inst            0                       # Table walker requests started/completed, data/inst
system.cpu.istage2_mmu.stage2_tlb.walker.walkRequestOrigin_Requested::total            0                       # Table walker requests started/completed, data/inst
system.cpu.istage2_mmu.stage2_tlb.walker.walkRequestOrigin_Completed::Data            0                       # Table walker requests started/completed, data/inst
system.cpu.istage2_mmu.stage2_tlb.walker.walkRequestOrigin_Completed::Inst            0                       # Table walker requests started/completed, data/inst
system.cpu.istage2_mmu.stage2_tlb.walker.walkRequestOrigin_Completed::total            0                       # Table walker requests started/completed, data/inst
system.cpu.istage2_mmu.stage2_tlb.walker.walkRequestOrigin::total            0                       # Table walker requests started/completed, data/inst
system.cpu.istage2_mmu.stage2_tlb.inst_hits            0                       # ITB inst hits
system.cpu.istage2_mmu.stage2_tlb.inst_misses            0                       # ITB inst misses
system.cpu.istage2_mmu.stage2_tlb.read_hits            0                       # DTB read hits
system.cpu.istage2_mmu.stage2_tlb.read_misses            0                       # DTB read misses
system.cpu.istage2_mmu.stage2_tlb.write_hits            0                       # DTB write hits
system.cpu.istage2_mmu.stage2_tlb.write_misses            0                       # DTB write misses
system.cpu.istage2_mmu.stage2_tlb.flush_tlb            0                       # Number of times complete TLB was flushed
system.cpu.istage2_mmu.stage2_tlb.flush_tlb_mva            0                       # Number of times TLB was flushed by MVA
system.cpu.istage2_mmu.stage2_tlb.flush_tlb_mva_asid            0                       # Number of times TLB was flushed by MVA & ASID
system.cpu.istage2_mmu.stage2_tlb.flush_tlb_asid            0                       # Number of times TLB was flushed by ASID
system.cpu.istage2_mmu.stage2_tlb.flush_entries            0                       # Number of entries that have been flushed from TLB
system.cpu.istage2_mmu.stage2_tlb.align_faults            0                       # Number of TLB faults due to alignment restrictions
system.cpu.istage2_mmu.stage2_tlb.prefetch_faults            0                       # Number of TLB faults due to prefetch
system.cpu.istage2_mmu.stage2_tlb.domain_faults            0                       # Number of TLB faults due to domain restrictions
system.cpu.istage2_mmu.stage2_tlb.perms_faults            0                       # Number of TLB faults due to permissions restrictions
system.cpu.istage2_mmu.stage2_tlb.read_accesses            0                       # DTB read accesses
system.cpu.istage2_mmu.stage2_tlb.write_accesses            0                       # DTB write accesses
system.cpu.istage2_mmu.stage2_tlb.inst_accesses            0                       # ITB inst accesses
system.cpu.istage2_mmu.stage2_tlb.hits              0                       # DTB hits
system.cpu.istage2_mmu.stage2_tlb.misses            0                       # DTB misses
system.cpu.istage2_mmu.stage2_tlb.accesses            0                       # DTB accesses
system.cpu.itb.walker.walks                         0                       # Table walker walks requested
system.cpu.itb.walker.walkRequestOrigin_Requested::Data            0                       # Table walker requests started/completed, data/inst
system.cpu.itb.walker.walkRequestOrigin_Requested::Inst            0                       # Table walker requests started/completed, data/inst
system.cpu.itb.walker.walkRequestOrigin_Requested::total            0                       # Table walker requests started/completed, data/inst
system.cpu.itb.walker.walkRequestOrigin_Completed::Data            0                       # Table walker requests started/completed, data/inst
system.cpu.itb.walker.walkRequestOrigin_Completed::Inst            0                       # Table walker requests started/completed, data/inst
system.cpu.itb.walker.walkRequestOrigin_Completed::total            0                       # Table walker requests started/completed, data/inst
system.cpu.itb.walker.walkRequestOrigin::total            0                       # Table walker requests started/completed, data/inst
system.cpu.itb.inst_hits                            0                       # ITB inst hits
system.cpu.itb.inst_misses                          0                       # ITB inst misses
system.cpu.itb.read_hits                            0                       # DTB read hits
system.cpu.itb.read_misses                          0                       # DTB read misses
system.cpu.itb.write_hits                           0                       # DTB write hits
system.cpu.itb.write_misses                         0                       # DTB write misses
system.cpu.itb.flush_tlb                            0                       # Number of times complete TLB was flushed
system.cpu.itb.flush_tlb_mva                        0                       # Number of times TLB was flushed by MVA
system.cpu.itb.flush_tlb_mva_asid                   0                       # Number of times TLB was flushed by MVA & ASID
system.cpu.itb.flush_tlb_asid                       0                       # Number of times TLB was flushed by ASID
system.cpu.itb.flush_entries                        0                       # Number of entries that have been flushed from TLB
system.cpu.itb.align_faults                         0                       # Number of TLB faults due to alignment restrictions
system.cpu.itb.prefetch_faults                      0                       # Number of TLB faults due to prefetch
system.cpu.itb.domain_faults                        0                       # Number of TLB faults due to domain restrictions
system.cpu.itb.perms_faults                         0                       # Number of TLB faults due to permissions restrictions
system.cpu.itb.read_accesses                        0                       # DTB read accesses
system.cpu.itb.write_accesses                       0                       # DTB write accesses
system.cpu.itb.inst_accesses                        0                       # ITB inst accesses
system.cpu.itb.hits                                 0                       # DTB hits
system.cpu.itb.misses                               0                       # DTB misses
system.cpu.itb.accesses                             0                       # DTB accesses
system.cpu.workload.num_syscalls                  400                       # Number of system calls
system.cpu.numCycles                        170016628                       # number of cpu cycles simulated
system.cpu.numWorkItemsStarted                      0                       # number of work items this cpu started
system.cpu.numWorkItemsCompleted                    0                       # number of work items this cpu completed
system.cpu.fetch.icacheStallCycles            5612512                       # Number of cycles fetch is stalled on an Icache miss
system.cpu.fetch.Insts                      349284796                       # Number of instructions fetch has processed
system.cpu.fetch.Branches                    85929478                       # Number of branches that fetch encountered
system.cpu.fetch.predictedBranches           42720929                       # Number of branches that fetch has predicted taken
system.cpu.fetch.Cycles                     158258026                       # Number of cycles fetch has run and was not squashing or blocked
system.cpu.fetch.SquashCycles                12046973                       # Number of cycles fetch has spent squashing
system.cpu.fetch.MiscStallCycles                 1522                       # Number of cycles fetch has spent waiting on interrupts, or bad addresses, or out of MSHRs
system.cpu.fetch.PendingQuiesceStallCycles           23                       # Number of stall cycles due to pending quiesce instructions
system.cpu.fetch.IcacheWaitRetryStallCycles         2068                       # Number of stall cycles due to full MSHR
system.cpu.fetch.CacheLines                  78953849                       # Number of cache lines fetched
system.cpu.fetch.IcacheSquashes                 17938                       # Number of outstanding Icache misses that were squashed
system.cpu.fetch.rateDist::samples          169897637                       # Number of instructions fetched each cycle (Total)
system.cpu.fetch.rateDist::mean              2.150791                       # Number of instructions fetched each cycle (Total)
system.cpu.fetch.rateDist::stdev             1.046975                       # Number of instructions fetched each cycle (Total)
system.cpu.fetch.rateDist::underflows               0      0.00%      0.00% # Number of instructions fetched each cycle (Total)
system.cpu.fetch.rateDist::0                 17345965     10.21%     10.21% # Number of instructions fetched each cycle (Total)
system.cpu.fetch.rateDist::1                 30201314     17.78%     27.99% # Number of instructions fetched each cycle (Total)
system.cpu.fetch.rateDist::2                 31838054     18.74%     46.73% # Number of instructions fetched each cycle (Total)
system.cpu.fetch.rateDist::3                 90512304     53.27%    100.00% # Number of instructions fetched each cycle (Total)
system.cpu.fetch.rateDist::overflows                0      0.00%    100.00% # Number of instructions fetched each cycle (Total)
system.cpu.fetch.rateDist::min_value                0                       # Number of instructions fetched each cycle (Total)
system.cpu.fetch.rateDist::max_value                3                       # Number of instructions fetched each cycle (Total)
system.cpu.fetch.rateDist::total            169897637                       # Number of instructions fetched each cycle (Total)
system.cpu.fetch.branchRate                  0.505418                       # Number of branch fetches per cycle
system.cpu.fetch.rate                        2.054416                       # Number of inst fetches per cycle
system.cpu.decode.IdleCycles                 17565023                       # Number of cycles decode is idle
system.cpu.decode.BlockedCycles              17095500                       # Number of cycles decode is blocked
system.cpu.decode.RunCycles                 122663721                       # Number of cycles decode is running
system.cpu.decode.UnblockCycles               6724834                       # Number of cycles decode is unblocking
system.cpu.decode.SquashCycles                5848559                       # Number of cycles decode is squashing
system.cpu.decode.BranchResolved             11136257                       # Number of times decode resolved a branch
system.cpu.decode.BranchMispred                190151                       # Number of times decode detected a branch misprediction
system.cpu.decode.DecodedInsts              306621954                       # Number of instructions handled by decode
system.cpu.decode.SquashedInsts              27645544                       # Number of squashed instructions handled by decode
system.cpu.rename.SquashCycles                5848559                       # Number of cycles rename is squashing
system.cpu.rename.IdleCycles                 37752791                       # Number of cycles rename is idle
system.cpu.rename.BlockCycles                 8406678                       # Number of cycles rename is blocking
system.cpu.rename.serializeStallCycles         578098                       # count of cycles rename stalled for serializing inst
system.cpu.rename.RunCycles                 108929543                       # Number of cycles rename is running
system.cpu.rename.UnblockCycles               8381968                       # Number of cycles rename is unblocking
system.cpu.rename.RenamedInsts              278665579                       # Number of instructions processed by rename
system.cpu.rename.SquashedInsts              13416120                       # Number of squashed instructions processed by rename
system.cpu.rename.ROBFullEvents               3045260                       # Number of times rename has blocked due to ROB full
system.cpu.rename.IQFullEvents                 842372                       # Number of times rename has blocked due to IQ full
system.cpu.rename.LQFullEvents                2187359                       # Number of times rename has blocked due to LQ full
system.cpu.rename.SQFullEvents                  31268                       # Number of times rename has blocked due to SQ full
system.cpu.rename.FullRegisterEvents            80203                       # Number of times there has been no free registers
system.cpu.rename.RenamedOperands           483123422                       # Number of destination operands rename has renamed
system.cpu.rename.RenameLookups            1196973277                       # Number of register rename lookups that rename has made
system.cpu.rename.int_rename_lookups        297590130                       # Number of integer rename lookups
system.cpu.rename.fp_rename_lookups           3005585                       # Number of floating rename lookups
system.cpu.rename.CommittedMaps             292976929                       # Number of HB maps that are committed
system.cpu.rename.UndoneMaps                190146493                       # Number of HB maps that are undone due to squashing
system.cpu.rename.serializingInsts              23524                       # count of serializing insts renamed
system.cpu.rename.tempSerializingInsts          23418                       # count of temporary serializing insts renamed
system.cpu.rename.skidInsts                  13341047                       # count of insts added to the skid buffer
system.cpu.memDep0.insertedLoads             34139788                       # Number of loads inserted to the mem dependence unit.
system.cpu.memDep0.insertedStores            14476953                       # Number of stores inserted to the mem dependence unit.
system.cpu.memDep0.conflictingLoads           2546690                       # Number of conflicting loads.
system.cpu.memDep0.conflictingStores          1793951                       # Number of conflicting stores.
system.cpu.iq.iqInstsAdded                  264825375                       # Number of instructions added to the IQ (excludes non-spec)
system.cpu.iq.iqNonSpecInstsAdded               45850                       # Number of non-speculative instructions added to the IQ
system.cpu.iq.iqInstsIssued                 214906973                       # Number of instructions issued
system.cpu.iq.iqSquashedInstsIssued           5192109                       # Number of squashed instructions issued
system.cpu.iq.iqSquashedInstsExamined        82644277                       # Number of squashed instructions iterated over during squash; mainly for profiling
system.cpu.iq.iqSquashedOperandsExamined    219958197                       # Number of squashed operands that are examined and possibly removed from graph
system.cpu.iq.iqSquashedNonSpecRemoved            634                       # Number of squashed non-spec instructions that were removed
system.cpu.iq.issued_per_cycle::samples     169897637                       # Number of insts issued each cycle
system.cpu.iq.issued_per_cycle::mean         1.264920                       # Number of insts issued each cycle
system.cpu.iq.issued_per_cycle::stdev        1.017502                       # Number of insts issued each cycle
system.cpu.iq.issued_per_cycle::underflows            0      0.00%      0.00% # Number of insts issued each cycle
system.cpu.iq.issued_per_cycle::0            52826553     31.09%     31.09% # Number of insts issued each cycle
system.cpu.iq.issued_per_cycle::1            36096362     21.25%     52.34% # Number of insts issued each cycle
system.cpu.iq.issued_per_cycle::2            65782146     38.72%     91.06% # Number of insts issued each cycle
system.cpu.iq.issued_per_cycle::3            13572889      7.99%     99.05% # Number of insts issued each cycle
system.cpu.iq.issued_per_cycle::4             1571303      0.92%     99.97% # Number of insts issued each cycle
system.cpu.iq.issued_per_cycle::5               47864      0.03%    100.00% # Number of insts issued each cycle
system.cpu.iq.issued_per_cycle::6                 520      0.00%    100.00% # Number of insts issued each cycle
system.cpu.iq.issued_per_cycle::7                   0      0.00%    100.00% # Number of insts issued each cycle
system.cpu.iq.issued_per_cycle::8                   0      0.00%    100.00% # Number of insts issued each cycle
system.cpu.iq.issued_per_cycle::overflows            0      0.00%    100.00% # Number of insts issued each cycle
system.cpu.iq.issued_per_cycle::min_value            0                       # Number of insts issued each cycle
system.cpu.iq.issued_per_cycle::max_value            6                       # Number of insts issued each cycle
system.cpu.iq.issued_per_cycle::total       169897637                       # Number of insts issued each cycle
system.cpu.iq.fu_full::No_OpClass                   0      0.00%      0.00% # attempts to use FU when none available
system.cpu.iq.fu_full::IntAlu                35601312     66.11%     66.11% # attempts to use FU when none available
system.cpu.iq.fu_full::IntMult                 152935      0.28%     66.39% # attempts to use FU when none available
system.cpu.iq.fu_full::IntDiv                       0      0.00%     66.39% # attempts to use FU when none available
system.cpu.iq.fu_full::FloatAdd                     0      0.00%     66.39% # attempts to use FU when none available
system.cpu.iq.fu_full::FloatCmp                     0      0.00%     66.39% # attempts to use FU when none available
system.cpu.iq.fu_full::FloatCvt                     0      0.00%     66.39% # attempts to use FU when none available
system.cpu.iq.fu_full::FloatMult                    0      0.00%     66.39% # attempts to use FU when none available
system.cpu.iq.fu_full::FloatDiv                     0      0.00%     66.39% # attempts to use FU when none available
system.cpu.iq.fu_full::FloatSqrt                    0      0.00%     66.39% # attempts to use FU when none available
system.cpu.iq.fu_full::SimdAdd                      0      0.00%     66.39% # attempts to use FU when none available
system.cpu.iq.fu_full::SimdAddAcc                   0      0.00%     66.39% # attempts to use FU when none available
system.cpu.iq.fu_full::SimdAlu                      0      0.00%     66.39% # attempts to use FU when none available
system.cpu.iq.fu_full::SimdCmp                      0      0.00%     66.39% # attempts to use FU when none available
system.cpu.iq.fu_full::SimdCvt                      0      0.00%     66.39% # attempts to use FU when none available
system.cpu.iq.fu_full::SimdMisc                     0      0.00%     66.39% # attempts to use FU when none available
system.cpu.iq.fu_full::SimdMult                     0      0.00%     66.39% # attempts to use FU when none available
system.cpu.iq.fu_full::SimdMultAcc                  0      0.00%     66.39% # attempts to use FU when none available
system.cpu.iq.fu_full::SimdShift                    0      0.00%     66.39% # attempts to use FU when none available
system.cpu.iq.fu_full::SimdShiftAcc                 0      0.00%     66.39% # attempts to use FU when none available
system.cpu.iq.fu_full::SimdSqrt                     0      0.00%     66.39% # attempts to use FU when none available
system.cpu.iq.fu_full::SimdFloatAdd              1069      0.00%     66.39% # attempts to use FU when none available
system.cpu.iq.fu_full::SimdFloatAlu                 0      0.00%     66.39% # attempts to use FU when none available
system.cpu.iq.fu_full::SimdFloatCmp             35738      0.07%     66.46% # attempts to use FU when none available
system.cpu.iq.fu_full::SimdFloatCvt               318      0.00%     66.46% # attempts to use FU when none available
system.cpu.iq.fu_full::SimdFloatDiv               201      0.00%     66.46% # attempts to use FU when none available
system.cpu.iq.fu_full::SimdFloatMisc              812      0.00%     66.46% # attempts to use FU when none available
system.cpu.iq.fu_full::SimdFloatMult            34382      0.06%     66.53% # attempts to use FU when none available
system.cpu.iq.fu_full::SimdFloatMultAcc           216      0.00%     66.53% # attempts to use FU when none available
system.cpu.iq.fu_full::SimdFloatSqrt                0      0.00%     66.53% # attempts to use FU when none available
system.cpu.iq.fu_full::MemRead               14078938     26.14%     92.67% # attempts to use FU when none available
system.cpu.iq.fu_full::MemWrite               3947834      7.33%    100.00% # attempts to use FU when none available
system.cpu.iq.fu_full::IprAccess                    0      0.00%    100.00% # attempts to use FU when none available
system.cpu.iq.fu_full::InstPrefetch                 0      0.00%    100.00% # attempts to use FU when none available
system.cpu.iq.FU_type_0::No_OpClass                 0      0.00%      0.00% # Type of FU issued
system.cpu.iq.FU_type_0::IntAlu             167350726     77.87%     77.87% # Type of FU issued
system.cpu.iq.FU_type_0::IntMult               918985      0.43%     78.30% # Type of FU issued
system.cpu.iq.FU_type_0::IntDiv                     0      0.00%     78.30% # Type of FU issued
system.cpu.iq.FU_type_0::FloatAdd                   0      0.00%     78.30% # Type of FU issued
system.cpu.iq.FU_type_0::FloatCmp                   0      0.00%     78.30% # Type of FU issued
system.cpu.iq.FU_type_0::FloatCvt                   0      0.00%     78.30% # Type of FU issued
system.cpu.iq.FU_type_0::FloatMult                  0      0.00%     78.30% # Type of FU issued
system.cpu.iq.FU_type_0::FloatDiv                   0      0.00%     78.30% # Type of FU issued
system.cpu.iq.FU_type_0::FloatSqrt                  0      0.00%     78.30% # Type of FU issued
system.cpu.iq.FU_type_0::SimdAdd                    0      0.00%     78.30% # Type of FU issued
system.cpu.iq.FU_type_0::SimdAddAcc                 0      0.00%     78.30% # Type of FU issued
system.cpu.iq.FU_type_0::SimdAlu                    0      0.00%     78.30% # Type of FU issued
system.cpu.iq.FU_type_0::SimdCmp                    0      0.00%     78.30% # Type of FU issued
system.cpu.iq.FU_type_0::SimdCvt                    0      0.00%     78.30% # Type of FU issued
system.cpu.iq.FU_type_0::SimdMisc                   0      0.00%     78.30% # Type of FU issued
system.cpu.iq.FU_type_0::SimdMult                   0      0.00%     78.30% # Type of FU issued
system.cpu.iq.FU_type_0::SimdMultAcc                0      0.00%     78.30% # Type of FU issued
system.cpu.iq.FU_type_0::SimdShift                  0      0.00%     78.30% # Type of FU issued
system.cpu.iq.FU_type_0::SimdShiftAcc               0      0.00%     78.30% # Type of FU issued
system.cpu.iq.FU_type_0::SimdSqrt                   0      0.00%     78.30% # Type of FU issued
system.cpu.iq.FU_type_0::SimdFloatAdd           33019      0.02%     78.31% # Type of FU issued
system.cpu.iq.FU_type_0::SimdFloatAlu               0      0.00%     78.31% # Type of FU issued
system.cpu.iq.FU_type_0::SimdFloatCmp          165190      0.08%     78.39% # Type of FU issued
system.cpu.iq.FU_type_0::SimdFloatCvt          245718      0.11%     78.51% # Type of FU issued
system.cpu.iq.FU_type_0::SimdFloatDiv           76018      0.04%     78.54% # Type of FU issued
system.cpu.iq.FU_type_0::SimdFloatMisc         460475      0.21%     78.76% # Type of FU issued
system.cpu.iq.FU_type_0::SimdFloatMult         206696      0.10%     78.85% # Type of FU issued
system.cpu.iq.FU_type_0::SimdFloatMultAcc        71623      0.03%     78.88% # Type of FU issued
system.cpu.iq.FU_type_0::SimdFloatSqrt            319      0.00%     78.88% # Type of FU issued
system.cpu.iq.FU_type_0::MemRead             32004909     14.89%     93.78% # Type of FU issued
system.cpu.iq.FU_type_0::MemWrite            13373295      6.22%    100.00% # Type of FU issued
system.cpu.iq.FU_type_0::IprAccess                  0      0.00%    100.00% # Type of FU issued
system.cpu.iq.FU_type_0::InstPrefetch               0      0.00%    100.00% # Type of FU issued
system.cpu.iq.FU_type_0::total              214906973                       # Type of FU issued
system.cpu.iq.rate                           1.264035                       # Inst issue rate
system.cpu.iq.fu_busy_cnt                    53853755                       # FU busy when requested
system.cpu.iq.fu_busy_rate                   0.250591                       # FU busy rate (busy events/executed inst)
system.cpu.iq.int_inst_queue_reads          654805304                       # Number of integer instruction queue reads
system.cpu.iq.int_inst_queue_writes         345511813                       # Number of integer instruction queue writes
system.cpu.iq.int_inst_queue_wakeup_accesses    204602678                       # Number of integer instruction queue wakeup accesses
system.cpu.iq.fp_inst_queue_reads             3952143                       # Number of floating instruction queue reads
system.cpu.iq.fp_inst_queue_writes            2010627                       # Number of floating instruction queue writes
system.cpu.iq.fp_inst_queue_wakeup_accesses      1806422                       # Number of floating instruction queue wakeup accesses
system.cpu.iq.int_alu_accesses              266627552                       # Number of integer alu accesses
system.cpu.iq.fp_alu_accesses                 2133176                       # Number of floating point alu accesses
system.cpu.iew.lsq.thread0.forwLoads          1600193                       # Number of loads that had data forwarded from stores
system.cpu.iew.lsq.thread0.invAddrLoads             0                       # Number of loads ignored due to an invalid address
system.cpu.iew.lsq.thread0.squashedLoads      6243644                       # Number of loads squashed
system.cpu.iew.lsq.thread0.ignoredResponses         7556                       # Number of memory responses ignored because the instruction is squashed
system.cpu.iew.lsq.thread0.memOrderViolation         7106                       # Number of memory ordering violations
system.cpu.iew.lsq.thread0.squashedStores      1832319                       # Number of stores squashed
system.cpu.iew.lsq.thread0.invAddrSwpfs             0                       # Number of software prefetches ignored due to an invalid address
system.cpu.iew.lsq.thread0.blockedLoads             0                       # Number of blocked loads due to partial load-store forwarding
system.cpu.iew.lsq.thread0.rescheduledLoads        25875                       # Number of loads that were rescheduled
system.cpu.iew.lsq.thread0.cacheBlocked           661                       # Number of times an access to memory failed due to the cache being blocked
system.cpu.iew.iewIdleCycles                        0                       # Number of cycles IEW is idle
system.cpu.iew.iewSquashCycles                5848559                       # Number of cycles IEW is squashing
system.cpu.iew.iewBlockCycles                 5681569                       # Number of cycles IEW is blocking
system.cpu.iew.iewUnblockCycles                 36478                       # Number of cycles IEW is unblocking
system.cpu.iew.iewDispatchedInsts           264887188                       # Number of instructions dispatched to IQ
system.cpu.iew.iewDispSquashedInsts                 0                       # Number of squashed instructions skipped by dispatch
system.cpu.iew.iewDispLoadInsts              34139788                       # Number of dispatched load instructions
system.cpu.iew.iewDispStoreInsts             14476953                       # Number of dispatched store instructions
system.cpu.iew.iewDispNonSpecInsts              23442                       # Number of dispatched non-speculative instructions
system.cpu.iew.iewIQFullEvents                   3814                       # Number of times the IQ has become full, causing a stall
system.cpu.iew.iewLSQFullEvents                 29479                       # Number of times the LSQ has become full, causing a stall
system.cpu.iew.memOrderViolationEvents           7106                       # Number of memory order violations
system.cpu.iew.predictedTakenIncorrect        3233640                       # Number of branches that were predicted taken incorrectly
system.cpu.iew.predictedNotTakenIncorrect      3247282                       # Number of branches that were predicted not taken incorrectly
system.cpu.iew.branchMispredicts              6480922                       # Number of branch mispredicts detected at execute
system.cpu.iew.iewExecutedInsts             207527385                       # Number of executed instructions
system.cpu.iew.iewExecLoadInsts              30721175                       # Number of load instructions executed
system.cpu.iew.iewExecSquashedInsts           7379588                       # Number of squashed instructions skipped in execute
system.cpu.iew.exec_swp                             0                       # number of swp insts executed
system.cpu.iew.exec_nop                         15963                       # number of nop insts executed
system.cpu.iew.exec_refs                     43860513                       # number of memory reference insts executed
system.cpu.iew.exec_branches                 44937173                       # Number of branches executed
system.cpu.iew.exec_stores                   13139338                       # Number of stores executed
system.cpu.iew.exec_rate                     1.220630                       # Inst execution rate
system.cpu.iew.wb_sent                      206744227                       # cumulative count of insts sent to commit
system.cpu.iew.wb_count                     206409100                       # cumulative count of insts written-back
system.cpu.iew.wb_producers                 129466460                       # num instructions producing a value
system.cpu.iew.wb_consumers                 221676348                       # num instructions consuming a value
system.cpu.iew.wb_penalized                         0                       # number of instrctions required to write to 'other' IQ
system.cpu.iew.wb_rate                       1.214052                       # insts written-back per cycle
system.cpu.iew.wb_fanout                     0.584034                       # average fanout of values written-back
system.cpu.iew.wb_penalized_rate                    0                       # fraction of instructions written-back that wrote to 'other' IQ
system.cpu.commit.commitSquashedInsts        69543087                       # The number of squashed insts skipped by commit
system.cpu.commit.commitNonSpecStalls           45216                       # The number of times commit has been forced to stall to communicate backwards
system.cpu.commit.branchMispredicts           5841587                       # The number of times a branch was mispredicted
system.cpu.commit.committed_per_cycle::samples    158455572                       # Number of insts commited each cycle
system.cpu.commit.committed_per_cycle::mean     1.146380                       # Number of insts commited each cycle
system.cpu.commit.committed_per_cycle::stdev     1.646562                       # Number of insts commited each cycle
system.cpu.commit.committed_per_cycle::underflows            0      0.00%      0.00% # Number of insts commited each cycle
system.cpu.commit.committed_per_cycle::0     73674398     46.50%     46.50% # Number of insts commited each cycle
system.cpu.commit.committed_per_cycle::1     41276379     26.05%     72.54% # Number of insts commited each cycle
system.cpu.commit.committed_per_cycle::2     22551197     14.23%     86.78% # Number of insts commited each cycle
system.cpu.commit.committed_per_cycle::3      9630660      6.08%     92.85% # Number of insts commited each cycle
system.cpu.commit.committed_per_cycle::4      3550983      2.24%     95.10% # Number of insts commited each cycle
system.cpu.commit.committed_per_cycle::5      2150131      1.36%     96.45% # Number of insts commited each cycle
system.cpu.commit.committed_per_cycle::6      1280461      0.81%     97.26% # Number of insts commited each cycle
system.cpu.commit.committed_per_cycle::7       988669      0.62%     97.88% # Number of insts commited each cycle
system.cpu.commit.committed_per_cycle::8      3352694      2.12%    100.00% # Number of insts commited each cycle
system.cpu.commit.committed_per_cycle::overflows            0      0.00%    100.00% # Number of insts commited each cycle
system.cpu.commit.committed_per_cycle::min_value            0                       # Number of insts commited each cycle
system.cpu.commit.committed_per_cycle::max_value            8                       # Number of insts commited each cycle
system.cpu.commit.committed_per_cycle::total    158455572                       # Number of insts commited each cycle
system.cpu.commit.committedInsts            172317409                       # Number of instructions committed
system.cpu.commit.committedOps              181650341                       # Number of ops (including micro ops) committed
system.cpu.commit.swp_count                         0                       # Number of s/w prefetches committed
system.cpu.commit.refs                       40540778                       # Number of memory references committed
system.cpu.commit.loads                      27896144                       # Number of loads committed
system.cpu.commit.membars                       22408                       # Number of memory barriers committed
system.cpu.commit.branches                   40300311                       # Number of branches committed
system.cpu.commit.fp_insts                    1752310                       # Number of committed floating point instructions.
system.cpu.commit.int_insts                 143085667                       # Number of committed integer instructions.
system.cpu.commit.function_calls              1848934                       # Number of function calls committed.
system.cpu.commit.op_class_0::No_OpClass            0      0.00%      0.00% # Class of committed instruction
system.cpu.commit.op_class_0::IntAlu        138987812     76.51%     76.51% # Class of committed instruction
system.cpu.commit.op_class_0::IntMult          908940      0.50%     77.01% # Class of committed instruction
system.cpu.commit.op_class_0::IntDiv                0      0.00%     77.01% # Class of committed instruction
system.cpu.commit.op_class_0::FloatAdd              0      0.00%     77.01% # Class of committed instruction
system.cpu.commit.op_class_0::FloatCmp              0      0.00%     77.01% # Class of committed instruction
system.cpu.commit.op_class_0::FloatCvt              0      0.00%     77.01% # Class of committed instruction
system.cpu.commit.op_class_0::FloatMult             0      0.00%     77.01% # Class of committed instruction
system.cpu.commit.op_class_0::FloatDiv              0      0.00%     77.01% # Class of committed instruction
system.cpu.commit.op_class_0::FloatSqrt             0      0.00%     77.01% # Class of committed instruction
system.cpu.commit.op_class_0::SimdAdd               0      0.00%     77.01% # Class of committed instruction
system.cpu.commit.op_class_0::SimdAddAcc            0      0.00%     77.01% # Class of committed instruction
system.cpu.commit.op_class_0::SimdAlu               0      0.00%     77.01% # Class of committed instruction
system.cpu.commit.op_class_0::SimdCmp               0      0.00%     77.01% # Class of committed instruction
system.cpu.commit.op_class_0::SimdCvt               0      0.00%     77.01% # Class of committed instruction
system.cpu.commit.op_class_0::SimdMisc              0      0.00%     77.01% # Class of committed instruction
system.cpu.commit.op_class_0::SimdMult              0      0.00%     77.01% # Class of committed instruction
system.cpu.commit.op_class_0::SimdMultAcc            0      0.00%     77.01% # Class of committed instruction
system.cpu.commit.op_class_0::SimdShift             0      0.00%     77.01% # Class of committed instruction
system.cpu.commit.op_class_0::SimdShiftAcc            0      0.00%     77.01% # Class of committed instruction
system.cpu.commit.op_class_0::SimdSqrt              0      0.00%     77.01% # Class of committed instruction
system.cpu.commit.op_class_0::SimdFloatAdd        32754      0.02%     77.03% # Class of committed instruction
system.cpu.commit.op_class_0::SimdFloatAlu            0      0.00%     77.03% # Class of committed instruction
system.cpu.commit.op_class_0::SimdFloatCmp       154829      0.09%     77.12% # Class of committed instruction
system.cpu.commit.op_class_0::SimdFloatCvt       238880      0.13%     77.25% # Class of committed instruction
system.cpu.commit.op_class_0::SimdFloatDiv        76016      0.04%     77.29% # Class of committed instruction
system.cpu.commit.op_class_0::SimdFloatMisc       437591      0.24%     77.53% # Class of committed instruction
system.cpu.commit.op_class_0::SimdFloatMult       200806      0.11%     77.64% # Class of committed instruction
system.cpu.commit.op_class_0::SimdFloatMultAcc        71617      0.04%     77.68% # Class of committed instruction
system.cpu.commit.op_class_0::SimdFloatSqrt          318      0.00%     77.68% # Class of committed instruction
system.cpu.commit.op_class_0::MemRead        27896144     15.36%     93.04% # Class of committed instruction
system.cpu.commit.op_class_0::MemWrite       12644634      6.96%    100.00% # Class of committed instruction
system.cpu.commit.op_class_0::IprAccess             0      0.00%    100.00% # Class of committed instruction
system.cpu.commit.op_class_0::InstPrefetch            0      0.00%    100.00% # Class of committed instruction
system.cpu.commit.op_class_0::total         181650341                       # Class of committed instruction
system.cpu.commit.bw_lim_events               3352694                       # number cycles where commit BW limit reached
system.cpu.commit.bw_limited                        0                       # number of insts not committed due to BW limits
system.cpu.rob.rob_reads                    406291105                       # The number of ROB reads
system.cpu.rob.rob_writes                   513842853                       # The number of ROB writes
system.cpu.timesIdled                            3394                       # Number of times that the entire CPU went into an idle state and unscheduled itself
system.cpu.idleCycles                          118991                       # Total number of cycles that the CPU has spent unscheduled due to idling
system.cpu.committedInsts                   172303021                       # Number of Instructions Simulated
system.cpu.committedOps                     181635953                       # Number of Ops (including micro ops) Simulated
system.cpu.cpi                               0.986730                       # CPI: Cycles Per Instruction
system.cpu.cpi_total                         0.986730                       # CPI: Total CPI of All Threads
system.cpu.ipc                               1.013448                       # IPC: Instructions Per Cycle
system.cpu.ipc_total                         1.013448                       # IPC: Total IPC of All Threads
system.cpu.int_regfile_reads                218960053                       # number of integer regfile reads
system.cpu.int_regfile_writes               114514072                       # number of integer regfile writes
system.cpu.fp_regfile_reads                   2904445                       # number of floating regfile reads
system.cpu.fp_regfile_writes                  2441481                       # number of floating regfile writes
system.cpu.cc_regfile_reads                 709585079                       # number of cc regfile reads
system.cpu.cc_regfile_writes                229544416                       # number of cc regfile writes
system.cpu.misc_regfile_reads                59313443                       # number of misc regfile reads
system.cpu.misc_regfile_writes                 820036                       # number of misc regfile writes
system.cpu.dcache.tags.replacements             72897                       # number of replacements
system.cpu.dcache.tags.tagsinuse           511.439547                       # Cycle average of tags in use
system.cpu.dcache.tags.total_refs            41117509                       # Total number of references to valid blocks.
system.cpu.dcache.tags.sampled_refs             73409                       # Sample count of references to valid blocks.
system.cpu.dcache.tags.avg_refs            560.115367                       # Average number of references to valid blocks.
system.cpu.dcache.tags.warmup_cycle         497141250                       # Cycle when the warmup percentage was hit.
[...]
system.cpu.l2cache.overall_miss_latency::total    171532250                       # number of overall miss cycles
system.cpu.l2cache.ReadReq_accesses::cpu.inst        54952                       # number of ReadReq accesses(hits+misses)
system.cpu.l2cache.ReadReq_accesses::cpu.data        64772                       # number of ReadReq accesses(hits+misses)
system.cpu.l2cache.ReadReq_accesses::total       119724                       # number of ReadReq accesses(hits+misses)
system.cpu.l2cache.Writeback_accesses::writebacks        64874                       # number of Writeback accesses(hits+misses)
system.cpu.l2cache.Writeback_accesses::total        64874                       # number of Writeback accesses(hits+misses)
system.cpu.l2cache.ReadExReq_accesses::cpu.data         8637                       # number of ReadExReq accesses(hits+misses)
system.cpu.l2cache.ReadExReq_accesses::total         8637                       # number of ReadExReq accesses(hits+misses)
system.cpu.l2cache.demand_accesses::cpu.inst        54952                       # number of demand (read+write) accesses
system.cpu.l2cache.demand_accesses::cpu.data        73409                       # number of demand (read+write) accesses
system.cpu.l2cache.demand_accesses::total       128361                       # number of demand (read+write) accesses
system.cpu.l2cache.overall_accesses::cpu.inst        54952                       # number of overall (read+write) accesses
system.cpu.l2cache.overall_accesses::cpu.data        73409                       # number of overall (read+write) accesses
system.cpu.l2cache.overall_accesses::total       128361                       # number of overall (read+write) accesses
system.cpu.l2cache.ReadReq_miss_rate::cpu.inst     0.036250                       # miss rate for ReadReq accesses
system.cpu.l2cache.ReadReq_miss_rate::cpu.data     0.008074                       # miss rate for ReadReq accesses
system.cpu.l2cache.ReadReq_miss_rate::total     0.021007                       # miss rate for ReadReq accesses
system.cpu.l2cache.ReadExReq_miss_rate::cpu.data     0.027209                       # miss rate for ReadExReq accesses
system.cpu.l2cache.ReadExReq_miss_rate::total     0.027209                       # miss rate for ReadExReq accesses
system.cpu.l2cache.demand_miss_rate::cpu.inst     0.036250                       # miss rate for demand accesses
system.cpu.l2cache.demand_miss_rate::cpu.data     0.010326                       # miss rate for demand accesses
system.cpu.l2cache.demand_miss_rate::total     0.021424                       # miss rate for demand accesses
system.cpu.l2cache.overall_miss_rate::cpu.inst     0.036250                       # miss rate for overall accesses
system.cpu.l2cache.overall_miss_rate::cpu.data     0.010326                       # miss rate for overall accesses
system.cpu.l2cache.overall_miss_rate::total     0.021424                       # miss rate for overall accesses
system.cpu.l2cache.ReadReq_avg_miss_latency::cpu.inst 61036.144578                       # average ReadReq miss latency
system.cpu.l2cache.ReadReq_avg_miss_latency::cpu.data 66216.539197                       # average ReadReq miss latency
system.cpu.l2cache.ReadReq_avg_miss_latency::total 62113.419483                       # average ReadReq miss latency
system.cpu.l2cache.ReadExReq_avg_miss_latency::cpu.data 65178.723404                       # average ReadExReq miss latency
system.cpu.l2cache.ReadExReq_avg_miss_latency::total 65178.723404                       # average ReadExReq miss latency
system.cpu.l2cache.demand_avg_miss_latency::cpu.inst 61036.144578                       # average overall miss latency
system.cpu.l2cache.demand_avg_miss_latency::cpu.data 65894.788918                       # average overall miss latency
system.cpu.l2cache.demand_avg_miss_latency::total 62375.363636                       # average overall miss latency
system.cpu.l2cache.overall_avg_miss_latency::cpu.inst 61036.144578                       # average overall miss latency
system.cpu.l2cache.overall_avg_miss_latency::cpu.data 65894.788918                       # average overall miss latency
system.cpu.l2cache.overall_avg_miss_latency::total 62375.363636                       # average overall miss latency
system.cpu.l2cache.blocked_cycles::no_mshrs            0                       # number of cycles access was blocked
system.cpu.l2cache.blocked_cycles::no_targets            0                       # number of cycles access was blocked
system.cpu.l2cache.blocked::no_mshrs                0                       # number of cycles access was blocked
system.cpu.l2cache.blocked::no_targets              0                       # number of cycles access was blocked
system.cpu.l2cache.avg_blocked_cycles::no_mshrs          nan                       # average number of cycles each access was blocked
system.cpu.l2cache.avg_blocked_cycles::no_targets          nan                       # average number of cycles each access was blocked
system.cpu.l2cache.fast_writes                      0                       # number of fast writes performed
system.cpu.l2cache.cache_copies                     0                       # number of cache copies performed
system.cpu.l2cache.ReadReq_mshr_hits::cpu.inst            5                       # number of ReadReq MSHR hits
system.cpu.l2cache.ReadReq_mshr_hits::cpu.data            8                       # number of ReadReq MSHR hits
system.cpu.l2cache.ReadReq_mshr_hits::total           13                       # number of ReadReq MSHR hits
system.cpu.l2cache.demand_mshr_hits::cpu.inst            5                       # number of demand (read+write) MSHR hits
system.cpu.l2cache.demand_mshr_hits::cpu.data            8                       # number of demand (read+write) MSHR hits
system.cpu.l2cache.demand_mshr_hits::total           13                       # number of demand (read+write) MSHR hits
system.cpu.l2cache.overall_mshr_hits::cpu.inst            5                       # number of overall MSHR hits
system.cpu.l2cache.overall_mshr_hits::cpu.data            8                       # number of overall MSHR hits
system.cpu.l2cache.overall_mshr_hits::total           13                       # number of overall MSHR hits
system.cpu.l2cache.ReadReq_mshr_misses::cpu.inst         1987                       # number of ReadReq MSHR misses
system.cpu.l2cache.ReadReq_mshr_misses::cpu.data          515                       # number of ReadReq MSHR misses
system.cpu.l2cache.ReadReq_mshr_misses::total         2502                       # number of ReadReq MSHR misses
system.cpu.l2cache.HardPFReq_mshr_misses::cpu.l2cache.prefetcher         1816                       # number of HardPFReq MSHR misses
system.cpu.l2cache.HardPFReq_mshr_misses::total         1816                       # number of HardPFReq MSHR misses
system.cpu.l2cache.ReadExReq_mshr_misses::cpu.data          235                       # number of ReadExReq MSHR misses
system.cpu.l2cache.ReadExReq_mshr_misses::total          235                       # number of ReadExReq MSHR misses
system.cpu.l2cache.demand_mshr_misses::cpu.inst         1987                       # number of demand (read+write) MSHR misses
system.cpu.l2cache.demand_mshr_misses::cpu.data          750                       # number of demand (read+write) MSHR misses
system.cpu.l2cache.demand_mshr_misses::total         2737                       # number of demand (read+write) MSHR misses
system.cpu.l2cache.overall_mshr_misses::cpu.inst         1987                       # number of overall MSHR misses
system.cpu.l2cache.overall_mshr_misses::cpu.data          750                       # number of overall MSHR misses
system.cpu.l2cache.overall_mshr_misses::cpu.l2cache.prefetcher         1816                       # number of overall MSHR misses
system.cpu.l2cache.overall_mshr_misses::total         4553                       # number of overall MSHR misses
system.cpu.l2cache.ReadReq_mshr_miss_latency::cpu.inst    104199500                       # number of ReadReq MSHR miss cycles
system.cpu.l2cache.ReadReq_mshr_miss_latency::cpu.data     29901250                       # number of ReadReq MSHR miss cycles
system.cpu.l2cache.ReadReq_mshr_miss_latency::total    134100750                       # number of ReadReq MSHR miss cycles
system.cpu.l2cache.HardPFReq_mshr_miss_latency::cpu.l2cache.prefetcher     63393390                       # number of HardPFReq MSHR miss cycles
system.cpu.l2cache.HardPFReq_mshr_miss_latency::total     63393390                       # number of HardPFReq MSHR miss cycles
system.cpu.l2cache.ReadExReq_mshr_miss_latency::cpu.data     13328500                       # number of ReadExReq MSHR miss cycles
system.cpu.l2cache.ReadExReq_mshr_miss_latency::total     13328500                       # number of ReadExReq MSHR miss cycles
system.cpu.l2cache.demand_mshr_miss_latency::cpu.inst    104199500                       # number of demand (read+write) MSHR miss cycles
system.cpu.l2cache.demand_mshr_miss_latency::cpu.data     43229750                       # number of demand (read+write) MSHR miss cycles
system.cpu.l2cache.demand_mshr_miss_latency::total    147429250                       # number of demand (read+write) MSHR miss cycles
system.cpu.l2cache.overall_mshr_miss_latency::cpu.inst    104199500                       # number of overall MSHR miss cycles
system.cpu.l2cache.overall_mshr_miss_latency::cpu.data     43229750                       # number of overall MSHR miss cycles
system.cpu.l2cache.overall_mshr_miss_latency::cpu.l2cache.prefetcher     63393390                       # number of overall MSHR miss cycles
system.cpu.l2cache.overall_mshr_miss_latency::total    210822640                       # number of overall MSHR miss cycles
system.cpu.l2cache.ReadReq_mshr_miss_rate::cpu.inst     0.036159                       # mshr miss rate for ReadReq accesses
system.cpu.l2cache.ReadReq_mshr_miss_rate::cpu.data     0.007951                       # mshr miss rate for ReadReq accesses
system.cpu.l2cache.ReadReq_mshr_miss_rate::total     0.020898                       # mshr miss rate for ReadReq accesses
system.cpu.l2cache.HardPFReq_mshr_miss_rate::cpu.l2cache.prefetcher          inf                       # mshr miss rate for HardPFReq accesses
system.cpu.l2cache.HardPFReq_mshr_miss_rate::total          inf                       # mshr miss rate for HardPFReq accesses
system.cpu.l2cache.ReadExReq_mshr_miss_rate::cpu.data     0.027209                       # mshr miss rate for ReadExReq accesses
system.cpu.l2cache.ReadExReq_mshr_miss_rate::total     0.027209                       # mshr miss rate for ReadExReq accesses
system.cpu.l2cache.demand_mshr_miss_rate::cpu.inst     0.036159                       # mshr miss rate for demand accesses
system.cpu.l2cache.demand_mshr_miss_rate::cpu.data     0.010217                       # mshr miss rate for demand accesses
system.cpu.l2cache.demand_mshr_miss_rate::total     0.021323                       # mshr miss rate for demand accesses
system.cpu.l2cache.overall_mshr_miss_rate::cpu.inst     0.036159                       # mshr miss rate for overall accesses
system.cpu.l2cache.overall_mshr_miss_rate::cpu.data     0.010217                       # mshr miss rate for overall accesses
system.cpu.l2cache.overall_mshr_miss_rate::cpu.l2cache.prefetcher          inf                       # mshr miss rate for overall accesses
system.cpu.l2cache.overall_mshr_miss_rate::total     0.035470                       # mshr miss rate for overall accesses
system.cpu.l2cache.ReadReq_avg_mshr_miss_latency::cpu.inst 52440.613991                       # average ReadReq mshr miss latency
system.cpu.l2cache.ReadReq_avg_mshr_miss_latency::cpu.data 58060.679612                       # average ReadReq mshr miss latency
system.cpu.l2cache.ReadReq_avg_mshr_miss_latency::total 53597.422062                       # average ReadReq mshr miss latency
system.cpu.l2cache.HardPFReq_avg_mshr_miss_latency::cpu.l2cache.prefetcher 34908.254405                       # average HardPFReq mshr miss latency
system.cpu.l2cache.HardPFReq_avg_mshr_miss_latency::total 34908.254405                       # average HardPFReq mshr miss latency
system.cpu.l2cache.ReadExReq_avg_mshr_miss_latency::cpu.data 56717.021277                       # average ReadExReq mshr miss latency
system.cpu.l2cache.ReadExReq_avg_mshr_miss_latency::total 56717.021277                       # average ReadExReq mshr miss latency
system.cpu.l2cache.demand_avg_mshr_miss_latency::cpu.inst 52440.613991                       # average overall mshr miss latency
system.cpu.l2cache.demand_avg_mshr_miss_latency::cpu.data 57639.666667                       # average overall mshr miss latency
system.cpu.l2cache.demand_avg_mshr_miss_latency::total 53865.272196                       # average overall mshr miss latency
system.cpu.l2cache.overall_avg_mshr_miss_latency::cpu.inst 52440.613991                       # average overall mshr miss latency
system.cpu.l2cache.overall_avg_mshr_miss_latency::cpu.data 57639.666667                       # average overall mshr miss latency
system.cpu.l2cache.overall_avg_mshr_miss_latency::cpu.l2cache.prefetcher 34908.254405                       # average overall mshr miss latency
system.cpu.l2cache.overall_avg_mshr_miss_latency::total 46304.115967                       # average overall mshr miss latency
system.cpu.l2cache.no_allocate_misses               0                       # Number of misses that were no-allocate
system.cpu.toL2Bus.trans_dist::ReadReq         119724                       # Transaction distribution
system.cpu.toL2Bus.trans_dist::ReadResp        119724                       # Transaction distribution
system.cpu.toL2Bus.trans_dist::Writeback        64874                       # Transaction distribution
system.cpu.toL2Bus.trans_dist::HardPFReq         2213                       # Transaction distribution
system.cpu.toL2Bus.trans_dist::ReadExReq         8637                       # Transaction distribution
system.cpu.toL2Bus.trans_dist::ReadExResp         8637                       # Transaction distribution
system.cpu.toL2Bus.pkt_count_system.cpu.icache.mem_side::system.cpu.l2cache.cpu_side       109904                       # Packet count per connected master and slave (bytes)
system.cpu.toL2Bus.pkt_count_system.cpu.dcache.mem_side::system.cpu.l2cache.cpu_side       211692                       # Packet count per connected master and slave (bytes)
system.cpu.toL2Bus.pkt_count::total            321596                       # Packet count per connected master and slave (bytes)
system.cpu.toL2Bus.pkt_size_system.cpu.icache.mem_side::system.cpu.l2cache.cpu_side      3516928                       # Cumulative packet size per connected master and slave (bytes)
system.cpu.toL2Bus.pkt_size_system.cpu.dcache.mem_side::system.cpu.l2cache.cpu_side      8850112                       # Cumulative packet size per connected master and slave (bytes)
system.cpu.toL2Bus.pkt_size::total           12367040                       # Cumulative packet size per connected master and slave (bytes)
system.cpu.toL2Bus.snoops                        2213                       # Total snoops (count)
system.cpu.toL2Bus.snoop_fanout::samples       195448                       # Request fanout histogram
system.cpu.toL2Bus.snoop_fanout::mean        5.011323                       # Request fanout histogram
system.cpu.toL2Bus.snoop_fanout::stdev       0.105804                       # Request fanout histogram
system.cpu.toL2Bus.snoop_fanout::underflows            0      0.00%      0.00% # Request fanout histogram
system.cpu.toL2Bus.snoop_fanout::0                  0      0.00%      0.00% # Request fanout histogram
system.cpu.toL2Bus.snoop_fanout::1                  0      0.00%      0.00% # Request fanout histogram
system.cpu.toL2Bus.snoop_fanout::2                  0      0.00%      0.00% # Request fanout histogram
system.cpu.toL2Bus.snoop_fanout::3                  0      0.00%      0.00% # Request fanout histogram
system.cpu.toL2Bus.snoop_fanout::4                  0      0.00%      0.00% # Request fanout histogram
system.cpu.toL2Bus.snoop_fanout::5             193235     98.87%     98.87% # Request fanout histogram
system.cpu.toL2Bus.snoop_fanout::6               2213      1.13%    100.00% # Request fanout histogram
system.cpu.toL2Bus.snoop_fanout::overflows            0      0.00%    100.00% # Request fanout histogram
system.cpu.toL2Bus.snoop_fanout::min_value            5                       # Request fanout histogram
system.cpu.toL2Bus.snoop_fanout::max_value            6                       # Request fanout histogram
system.cpu.toL2Bus.snoop_fanout::total         195448                       # Request fanout histogram
system.cpu.toL2Bus.reqLayer0.occupancy      161491500                       # Layer occupancy (ticks)
system.cpu.toL2Bus.reqLayer0.utilization          0.2                       # Layer utilization (%)
system.cpu.toL2Bus.respLayer0.occupancy      82814471                       # Layer occupancy (ticks)
system.cpu.toL2Bus.respLayer0.utilization          0.1                       # Layer utilization (%)
system.cpu.toL2Bus.respLayer1.occupancy     110208992                       # Layer occupancy (ticks)
system.cpu.toL2Bus.respLayer1.utilization          0.1                       # Layer utilization (%)
system.membus.trans_dist::ReadReq                3617                       # Transaction distribution
system.membus.trans_dist::ReadResp               3617                       # Transaction distribution
system.membus.trans_dist::ReadExReq               235                       # Transaction distribution
system.membus.trans_dist::ReadExResp              235                       # Transaction distribution
system.membus.pkt_count_system.cpu.l2cache.mem_side::system.physmem.port         7704                       # Packet count per connected master and slave (bytes)
system.membus.pkt_count::total                   7704                       # Packet count per connected master and slave (bytes)
system.membus.pkt_size_system.cpu.l2cache.mem_side::system.physmem.port       246528                       # Cumulative packet size per connected master and slave (bytes)
system.membus.pkt_size::total                  246528                       # Cumulative packet size per connected master and slave (bytes)
system.membus.snoops                                0                       # Total snoops (count)
system.membus.snoop_fanout::samples              3852                       # Request fanout histogram
system.membus.snoop_fanout::mean                    0                       # Request fanout histogram
system.membus.snoop_fanout::stdev                   0                       # Request fanout histogram
system.membus.snoop_fanout::underflows              0      0.00%      0.00% # Request fanout histogram
system.membus.snoop_fanout::0                    3852    100.00%    100.00% # Request fanout histogram
system.membus.snoop_fanout::1                       0      0.00%    100.00% # Request fanout histogram
system.membus.snoop_fanout::overflows               0      0.00%    100.00% # Request fanout histogram
system.membus.snoop_fanout::min_value               0                       # Request fanout histogram
system.membus.snoop_fanout::max_value               0                       # Request fanout histogram
system.membus.snoop_fanout::total                3852                       # Request fanout histogram
system.membus.reqLayer0.occupancy             5007645                       # Layer occupancy (ticks)
system.membus.reqLayer0.utilization               0.0                       # Layer utilization (%)
system.membus.respLayer1.occupancy           36124927                       # Layer occupancy (ticks)
system.membus.respLayer1.utilization              0.0                       # Layer utilization (%)

---------- End Simulation Statistics   ----------
