
---------- Begin Simulation Statistics ----------
sim_seconds                                  0.885256                       # Number of seconds simulated
sim_ticks                                885256008500                       # Number of ticks simulated
final_tick                               885256008500                       # Number of ticks from beginning of simulation (restored from checkpoints and never reset)
sim_freq                                 1000000000000                       # Frequency of simulated ticks
host_inst_rate                                 362789                       # Simulator instruction rate (inst/s)
host_op_rate                                   670835                       # Simulator op (including micro ops) rate (op/s)
host_tick_rate                              388389023                       # Simulator tick rate (ticks/s)
host_mem_usage                                 304128                       # Number of bytes of host memory used
host_seconds                                  2279.30                       # Real time elapsed on the host
sim_insts                                   826906380                       # Number of instructions simulated
sim_ops                                    1529035683                       # Number of ops (including micro ops) simulated
system.voltage_domain.voltage                       1                       # Voltage in Volts
system.clk_domain.clock                          1000                       # Clock period in ticks
system.physmem.bytes_read::cpu.inst        8547061720                       # Number of bytes read from this memory
system.physmem.bytes_read::cpu.data        2285750420                       # Number of bytes read from this memory
system.physmem.bytes_read::total          10832812140                       # Number of bytes read from this memory
system.physmem.bytes_inst_read::cpu.inst   8547061720                       # Number of instructions bytes read from this memory
system.physmem.bytes_inst_read::total      8547061720                       # Number of instructions bytes read from this memory
system.physmem.bytes_written::cpu.data      991875282                       # Number of bytes written to this memory
system.physmem.bytes_written::total         991875282                       # Number of bytes written to this memory
system.physmem.num_reads::cpu.inst         1068382715                       # Number of read requests responded to by this memory
system.physmem.num_reads::cpu.data          384117854                       # Number of read requests responded to by this memory
system.physmem.num_reads::total            1452500569                       # Number of read requests responded to by this memory
system.physmem.num_writes::cpu.data         149164510                       # Number of write requests responded to by this memory
system.physmem.num_writes::total            149164510                       # Number of write requests responded to by this memory
system.physmem.bw_read::cpu.inst           9654903935                       # Total read bandwidth from this memory (bytes/s)
system.physmem.bw_read::cpu.data           2582021921                       # Total read bandwidth from this memory (bytes/s)
system.physmem.bw_read::total             12236925856                       # Total read bandwidth from this memory (bytes/s)
system.physmem.bw_inst_read::cpu.inst      9654903935                       # Instruction read bandwidth from this memory (bytes/s)
system.physmem.bw_inst_read::total         9654903935                       # Instruction read bandwidth from this memory (bytes/s)
system.physmem.bw_write::cpu.data          1120438915                       # Write bandwidth from this memory (bytes/s)
system.physmem.bw_write::total             1120438915                       # Write bandwidth from this memory (bytes/s)
system.physmem.bw_total::cpu.inst          9654903935                       # Total bandwidth to/from this memory (bytes/s)
system.physmem.bw_total::cpu.data          3702460837                       # Total bandwidth to/from this memory (bytes/s)
system.physmem.bw_total::total            13357364772                       # Total bandwidth to/from this memory (bytes/s)
system.cpu_clk_domain.clock                       500                       # Clock period in ticks
system.cpu.apic_clk_domain.clock                 8000                       # Clock period in ticks
system.cpu.workload.num_syscalls                  551                       # Number of system calls
system.cpu.numCycles                       1770512018                       # number of cpu cycles simulated
system.cpu.numWorkItemsStarted                      0                       # number of work items this cpu started
system.cpu.numWorkItemsCompleted                    0                       # number of work items this cpu completed
system.cpu.committedInsts                   826906380                       # Number of instructions committed
system.cpu.committedOps                    1529035683                       # Number of ops (including micro ops) committed
system.cpu.num_int_alu_accesses            1526653037                       # Number of integer alu accesses
system.cpu.num_fp_alu_accesses                      0                       # Number of float alu accesses
system.cpu.num_func_calls                    35346287                       # number of times a function call or return occured
system.cpu.num_conditional_control_insts     92662756                       # number of instructions that are conditional controls
system.cpu.num_int_insts                   1526653037                       # number of integer instructions
system.cpu.num_fp_insts                             0                       # number of float instructions
system.cpu.num_int_register_reads          3293861747                       # number of times the integer registers were read
system.cpu.num_int_register_writes         1237389453                       # number of times the integer registers were written
system.cpu.num_fp_register_reads                    0                       # number of times the floating registers were read
system.cpu.num_fp_register_writes                   0                       # number of times the floating registers were written
system.cpu.num_cc_register_reads            561356848                       # number of times the CC registers were read
system.cpu.num_cc_register_writes           376698535                       # number of times the CC registers were written
system.cpu.num_mem_refs                     533282319                       # number of memory refs
system.cpu.num_load_insts                   384117825                       # Number of load instructions
system.cpu.num_store_insts                  149164494                       # Number of store instructions
system.cpu.num_idle_cycles                   0.002000                       # Number of idle cycles
system.cpu.num_busy_cycles               1770512017.998000                       # Number of busy cycles
system.cpu.not_idle_fraction                 1.000000                       # Percentage of non-idle cycles
system.cpu.idle_fraction                     0.000000                       # Percentage of idle cycles
system.cpu.Branches                         149762544                       # Number of branches fetched
system.cpu.op_class::No_OpClass               1818553      0.12%      0.12% # Class of executed instruction
system.cpu.op_class::IntAlu                 989751625     64.73%     64.85% # Class of executed instruction
system.cpu.op_class::IntMult                   306834      0.02%     64.87% # Class of executed instruction
system.cpu.op_class::IntDiv                   3876352      0.25%     65.12% # Class of executed instruction
system.cpu.op_class::FloatAdd                       0      0.00%     65.12% # Class of executed instruction
system.cpu.op_class::FloatCmp                       0      0.00%     65.12% # Class of executed instruction
system.cpu.op_class::FloatCvt                       0      0.00%     65.12% # Class of executed instruction
system.cpu.op_class::FloatMult                      0      0.00%     65.12% # Class of executed instruction
system.cpu.op_class::FloatDiv                       0      0.00%     65.12% # Class of executed instruction
system.cpu.op_class::FloatSqrt                      0      0.00%     65.12% # Class of executed instruction
system.cpu.op_class::SimdAdd                        0      0.00%     65.12% # Class of executed instruction
system.cpu.op_class::SimdAddAcc                     0      0.00%     65.12% # Class of executed instruction
system.cpu.op_class::SimdAlu                        0      0.00%     65.12% # Class of executed instruction
system.cpu.op_class::SimdCmp                        0      0.00%     65.12% # Class of executed instruction
system.cpu.op_class::SimdCvt                        0      0.00%     65.12% # Class of executed instruction
system.cpu.op_class::SimdMisc                       0      0.00%     65.12% # Class of executed instruction
system.cpu.op_class::SimdMult                       0      0.00%     65.12% # Class of executed instruction
system.cpu.op_class::SimdMultAcc                    0      0.00%     65.12% # Class of executed instruction
system.cpu.op_class::SimdShift                      0      0.00%     65.12% # Class of executed instruction
system.cpu.op_class::SimdShiftAcc                   0      0.00%     65.12% # Class of executed instruction
system.cpu.op_class::SimdSqrt                       0      0.00%     65.12% # Class of executed instruction
system.cpu.op_class::SimdFloatAdd                   0      0.00%     65.12% # Class of executed instruction
system.cpu.op_class::SimdFloatAlu                   0      0.00%     65.12% # Class of executed instruction
system.cpu.op_class::SimdFloatCmp                   0      0.00%     65.12% # Class of executed instruction
system.cpu.op_class::SimdFloatCvt                   0      0.00%     65.12% # Class of executed instruction
system.cpu.op_class::SimdFloatDiv                   0      0.00%     65.12% # Class of executed instruction
system.cpu.op_class::SimdFloatMisc                  0      0.00%     65.12% # Class of executed instruction
system.cpu.op_class::SimdFloatMult                  0      0.00%     65.12% # Class of executed instruction
system.cpu.op_class::SimdFloatMultAcc               0      0.00%     65.12% # Class of executed instruction
system.cpu.op_class::SimdFloatSqrt                  0      0.00%     65.12% # Class of executed instruction
system.cpu.op_class::MemRead                384117825     25.12%     90.24% # Class of executed instruction
system.cpu.op_class::MemWrite               149164494      9.76%    100.00% # Class of executed instruction
system.cpu.op_class::IprAccess                      0      0.00%    100.00% # Class of executed instruction
system.cpu.op_class::InstPrefetch                   0      0.00%    100.00% # Class of executed instruction
system.cpu.op_class::total                 1529035683                       # Class of executed instruction
system.membus.trans_dist::ReadReq          1452500569                       # Transaction distribution
system.membus.trans_dist::ReadResp         1452500569                       # Transaction distribution
system.membus.trans_dist::WriteReq          149164510                       # Transaction distribution
system.membus.trans_dist::WriteResp         149164510                       # Transaction distribution
system.membus.pkt_count_system.cpu.icache_port::system.physmem.port   2136765430                       # Packet count per connected master and slave (bytes)
system.membus.pkt_count_system.cpu.icache_port::total   2136765430                       # Packet count per connected master and slave (bytes)
system.membus.pkt_count_system.cpu.dcache_port::system.physmem.port   1066564728                       # Packet count per connected master and slave (bytes)
system.membus.pkt_count_system.cpu.dcache_port::total   1066564728                       # Packet count per connected master and slave (bytes)
system.membus.pkt_count::total             3203330158                       # Packet count per connected master and slave (bytes)
system.membus.pkt_size_system.cpu.icache_port::system.physmem.port   8547061720                       # Cumulative packet size per connected master and slave (bytes)
system.membus.pkt_size_system.cpu.icache_port::total   8547061720                       # Cumulative packet size per connected master and slave (bytes)
system.membus.pkt_size_system.cpu.dcache_port::system.physmem.port   3277625702                       # Cumulative packet size per connected master and slave (bytes)
system.membus.pkt_size_system.cpu.dcache_port::total   3277625702                       # Cumulative packet size per connected master and slave (bytes)
system.membus.pkt_size::total             11824687422                       # Cumulative packet size per connected master and slave (bytes)
system.membus.snoops                                0                       # Total snoops (count)
system.membus.snoop_fanout::samples        1601665079                       # Request fanout histogram
system.membus.snoop_fanout::mean             0.667045                       # Request fanout histogram
system.membus.snoop_fanout::stdev            0.471271                       # Request fanout histogram
system.membus.snoop_fanout::underflows              0      0.00%      0.00% # Request fanout histogram
system.membus.snoop_fanout::0               533282364     33.30%     33.30% # Request fanout histogram
system.membus.snoop_fanout::1              1068382715     66.70%    100.00% # Request fanout histogram
system.membus.snoop_fanout::overflows               0      0.00%    100.00% # Request fanout histogram
system.membus.snoop_fanout::min_value               0                       # Request fanout histogram
system.membus.snoop_fanout::max_value               1                       # Request fanout histogram
system.membus.snoop_fanout::total          1601665079                       # Request fanout histogram

---------- End Simulation Statistics   ----------
