
---------- Begin Simulation Statistics ----------
sim_seconds                                  0.541773                       # Number of seconds simulated
sim_ticks                                541773299500                       # Number of ticks simulated
final_tick                               541773299500                       # Number of ticks from beginning of simulation (restored from checkpoints and never reset)
sim_freq                                 1000000000000                       # Frequency of simulated ticks
host_inst_rate                                 180126                       # Simulator instruction rate (inst/s)
host_op_rate                                   221759                       # Simulator op (including micro ops) rate (op/s)
host_tick_rate                              152324877                       # Simulator tick rate (ticks/s)
host_mem_usage                                 323140                       # Number of bytes of host memory used
host_seconds                                  3556.70                       # Real time elapsed on the host
sim_insts                                   640655085                       # Number of instructions simulated
sim_ops                                     788730744                       # Number of ops (including micro ops) simulated
system.voltage_domain.voltage                       1                       # Voltage in Volts
system.clk_domain.clock                          1000                       # Clock period in ticks
system.physmem.bytes_read::cpu.inst            164800                       # Number of bytes read from this memory
system.physmem.bytes_read::cpu.data          18429120                       # Number of bytes read from this memory
system.physmem.bytes_read::total             18593920                       # Number of bytes read from this memory
system.physmem.bytes_inst_read::cpu.inst       164800                       # Number of instructions bytes read from this memory
system.physmem.bytes_inst_read::total          164800                       # Number of instructions bytes read from this memory
system.physmem.bytes_written::writebacks      4230272                       # Number of bytes written to this memory
system.physmem.bytes_written::total           4230272                       # Number of bytes written to this memory
system.physmem.num_reads::cpu.inst               2575                       # Number of read requests responded to by this memory
system.physmem.num_reads::cpu.data             287955                       # Number of read requests responded to by this memory
system.physmem.num_reads::total                290530                       # Number of read requests responded to by this memory
system.physmem.num_writes::writebacks           66098                       # Number of write requests responded to by this memory
system.physmem.num_writes::total                66098                       # Number of write requests responded to by this memory
system.physmem.bw_read::cpu.inst               304186                       # Total read bandwidth from this memory (bytes/s)
system.physmem.bw_read::cpu.data             34016294                       # Total read bandwidth from this memory (bytes/s)
system.physmem.bw_read::total                34320481                       # Total read bandwidth from this memory (bytes/s)
system.physmem.bw_inst_read::cpu.inst          304186                       # Instruction read bandwidth from this memory (bytes/s)
system.physmem.bw_inst_read::total             304186                       # Instruction read bandwidth from this memory (bytes/s)
system.physmem.bw_write::writebacks           7808196                       # Write bandwidth from this memory (bytes/s)
system.physmem.bw_write::total                7808196                       # Write bandwidth from this memory (bytes/s)
system.physmem.bw_total::writebacks           7808196                       # Total bandwidth to/from this memory (bytes/s)
system.physmem.bw_total::cpu.inst              304186                       # Total bandwidth to/from this memory (bytes/s)
system.physmem.bw_total::cpu.data            34016294                       # Total bandwidth to/from this memory (bytes/s)
system.physmem.bw_total::total               42128676                       # Total bandwidth to/from this memory (bytes/s)
system.physmem.readReqs                        290530                       # Number of read requests accepted
system.physmem.writeReqs                        66098                       # Number of write requests accepted
system.physmem.readBursts                      290530                       # Number of DRAM read bursts, including those serviced by the write queue
system.physmem.writeBursts                      66098                       # Number of DRAM write bursts, including those merged in the write queue
system.physmem.bytesReadDRAM                 18574272                       # Total number of bytes read from DRAM
system.physmem.bytesReadWrQ                     19648                       # Total number of bytes read from write queue
system.physmem.bytesWritten                   4228608                       # Total number of bytes written to DRAM
system.physmem.bytesReadSys                  18593920                       # Total read bytes from the system interface side
system.physmem.bytesWrittenSys                4230272                       # Total written bytes from the system interface side
system.physmem.servicedByWrQ                      307                       # Number of DRAM read bursts serviced by the write queue
system.physmem.mergedWrBursts                       0                       # Number of DRAM write bursts merged with an existing one
system.physmem.neitherReadNorWriteReqs              0                       # Number of requests that are neither read nor write
system.physmem.perBankRdBursts::0               18288                       # Per bank write bursts
system.physmem.perBankRdBursts::1               18136                       # Per bank write bursts
system.physmem.perBankRdBursts::2               18223                       # Per bank write bursts
system.physmem.perBankRdBursts::3               18182                       # Per bank write bursts
system.physmem.perBankRdBursts::4               18272                       # Per bank write bursts
system.physmem.perBankRdBursts::5               18313                       # Per bank write bursts
system.physmem.perBankRdBursts::6               18098                       # Per bank write bursts
system.physmem.perBankRdBursts::7               17913                       # Per bank write bursts
system.physmem.perBankRdBursts::8               17942                       # Per bank write bursts
system.physmem.perBankRdBursts::9               17963                       # Per bank write bursts
system.physmem.perBankRdBursts::10              18020                       # Per bank write bursts
system.physmem.perBankRdBursts::11              18117                       # Per bank write bursts
system.physmem.perBankRdBursts::12              18146                       # Per bank write bursts
system.physmem.perBankRdBursts::13              18271                       # Per bank write bursts
system.physmem.perBankRdBursts::14              18079                       # Per bank write bursts
system.physmem.perBankRdBursts::15              18260                       # Per bank write bursts
system.physmem.perBankWrBursts::0                4174                       # Per bank write bursts
system.physmem.perBankWrBursts::1                4100                       # Per bank write bursts
system.physmem.perBankWrBursts::2                4137                       # Per bank write bursts
system.physmem.perBankWrBursts::3                4147                       # Per bank write bursts
system.physmem.perBankWrBursts::4                4225                       # Per bank write bursts
system.physmem.perBankWrBursts::5                4225                       # Per bank write bursts
system.physmem.perBankWrBursts::6                4171                       # Per bank write bursts
system.physmem.perBankWrBursts::7                4096                       # Per bank write bursts
system.physmem.perBankWrBursts::8                4093                       # Per bank write bursts
system.physmem.perBankWrBursts::9                4092                       # Per bank write bursts
system.physmem.perBankWrBursts::10               4093                       # Per bank write bursts
system.physmem.perBankWrBursts::11               4095                       # Per bank write bursts
system.physmem.perBankWrBursts::12               4096                       # Per bank write bursts
system.physmem.perBankWrBursts::13               4094                       # Per bank write bursts
system.physmem.perBankWrBursts::14               4096                       # Per bank write bursts
system.physmem.perBankWrBursts::15               4138                       # Per bank write bursts
system.physmem.numRdRetry                           0                       # Number of times read queue was full causing retry
system.physmem.numWrRetry                           0                       # Number of times write queue was full causing retry
system.physmem.totGap                    541773205000                       # Total gap between requests
system.physmem.readPktSize::0                       0                       # Read request sizes (log2)
system.physmem.readPktSize::1                       0                       # Read request sizes (log2)
system.physmem.readPktSize::2                       0                       # Read request sizes (log2)
system.physmem.readPktSize::3                       0                       # Read request sizes (log2)
system.physmem.readPktSize::4                       0                       # Read request sizes (log2)
system.physmem.readPktSize::5                       0                       # Read request sizes (log2)
system.physmem.readPktSize::6                  290530                       # Read request sizes (log2)
system.physmem.writePktSize::0                      0                       # Write request sizes (log2)
system.physmem.writePktSize::1                      0                       # Write request sizes (log2)
system.physmem.writePktSize::2                      0                       # Write request sizes (log2)
system.physmem.writePktSize::3                      0                       # Write request sizes (log2)
system.physmem.writePktSize::4                      0                       # Write request sizes (log2)
system.physmem.writePktSize::5                      0                       # Write request sizes (log2)
system.physmem.writePktSize::6                  66098                       # Write request sizes (log2)
system.physmem.rdQLenPdf::0                    289832                       # What read queue length does an incoming req see
system.physmem.rdQLenPdf::1                       376                       # What read queue length does an incoming req see
system.physmem.rdQLenPdf::2                        15                       # What read queue length does an incoming req see
system.physmem.rdQLenPdf::3                         0                       # What read queue length does an incoming req see
system.physmem.rdQLenPdf::4                         0                       # What read queue length does an incoming req see
system.physmem.rdQLenPdf::5                         0                       # What read queue length does an incoming req see
system.physmem.rdQLenPdf::6                         0                       # What read queue length does an incoming req see
system.physmem.rdQLenPdf::7                         0                       # What read queue length does an incoming req see
system.physmem.rdQLenPdf::8                         0                       # What read queue length does an incoming req see
system.physmem.rdQLenPdf::9                         0                       # What read queue length does an incoming req see
system.physmem.rdQLenPdf::10                        0                       # What read queue length does an incoming req see
system.physmem.rdQLenPdf::11                        0                       # What read queue length does an incoming req see
system.physmem.rdQLenPdf::12                        0                       # What read queue length does an incoming req see
system.physmem.rdQLenPdf::13                        0                       # What read queue length does an incoming req see
system.physmem.rdQLenPdf::14                        0                       # What read queue length does an incoming req see
system.physmem.rdQLenPdf::15                        0                       # What read queue length does an incoming req see
system.physmem.rdQLenPdf::16                        0                       # What read queue length does an incoming req see
system.physmem.rdQLenPdf::17                        0                       # What read queue length does an incoming req see
system.physmem.rdQLenPdf::18                        0                       # What read queue length does an incoming req see
system.physmem.rdQLenPdf::19                        0                       # What read queue length does an incoming req see
system.physmem.rdQLenPdf::20                        0                       # What read queue length does an incoming req see
system.physmem.rdQLenPdf::21                        0                       # What read queue length does an incoming req see
system.physmem.rdQLenPdf::22                        0                       # What read queue length does an incoming req see
system.physmem.rdQLenPdf::23                        0                       # What read queue length does an incoming req see
system.physmem.rdQLenPdf::24                        0                       # What read queue length does an incoming req see
system.physmem.rdQLenPdf::25                        0                       # What read queue length does an incoming req see
system.physmem.rdQLenPdf::26                        0                       # What read queue length does an incoming req see
system.physmem.rdQLenPdf::27                        0                       # What read queue length does an incoming req see
system.physmem.rdQLenPdf::28                        0                       # What read queue length does an incoming req see
system.physmem.rdQLenPdf::29                        0                       # What read queue length does an incoming req see
system.physmem.rdQLenPdf::30                        0                       # What read queue length does an incoming req see
system.physmem.rdQLenPdf::31                        0                       # What read queue length does an incoming req see
system.physmem.wrQLenPdf::0                         1                       # What write queue length does an incoming req see
system.physmem.wrQLenPdf::1                         1                       # What write queue length does an incoming req see
system.physmem.wrQLenPdf::2                         1                       # What write queue length does an incoming req see
system.physmem.wrQLenPdf::3                         1                       # What write queue length does an incoming req see
system.physmem.wrQLenPdf::4                         1                       # What write queue length does an incoming req see
system.physmem.wrQLenPdf::5                         1                       # What write queue length does an incoming req see
system.physmem.wrQLenPdf::6                         1                       # What write queue length does an incoming req see
system.physmem.wrQLenPdf::7                         1                       # What write queue length does an incoming req see
system.physmem.wrQLenPdf::8                         1                       # What write queue length does an incoming req see
system.physmem.wrQLenPdf::9                         1                       # What write queue length does an incoming req see
system.physmem.wrQLenPdf::10                        1                       # What write queue length does an incoming req see
system.physmem.wrQLenPdf::11                        1                       # What write queue length does an incoming req see
system.physmem.wrQLenPdf::12                        1                       # What write queue length does an incoming req see
system.physmem.wrQLenPdf::13                        1                       # What write queue length does an incoming req see
system.physmem.wrQLenPdf::14                        1                       # What write queue length does an incoming req see
system.physmem.wrQLenPdf::15                      964                       # What write queue length does an incoming req see
system.physmem.wrQLenPdf::16                      964                       # What write queue length does an incoming req see
system.physmem.wrQLenPdf::17                     4009                       # What write queue length does an incoming req see
system.physmem.wrQLenPdf::18                     4010                       # What write queue length does an incoming req see
system.physmem.wrQLenPdf::19                     4010                       # What write queue length does an incoming req see
system.physmem.wrQLenPdf::20                     4010                       # What write queue length does an incoming req see
system.physmem.wrQLenPdf::21                     4010                       # What write queue length does an incoming req see
system.physmem.wrQLenPdf::22                     4010                       # What write queue length does an incoming req see
system.physmem.wrQLenPdf::23                     4010                       # What write queue length does an incoming req see
system.physmem.wrQLenPdf::24                     4011                       # What write queue length does an incoming req see
system.physmem.wrQLenPdf::25                     4010                       # What write queue length does an incoming req see
system.physmem.wrQLenPdf::26                     4009                       # What write queue length does an incoming req see
system.physmem.wrQLenPdf::27                     4011                       # What write queue length does an incoming req see
system.physmem.wrQLenPdf::28                     4009                       # What write queue length does an incoming req see
system.physmem.wrQLenPdf::29                     4009                       # What write queue length does an incoming req see
system.physmem.wrQLenPdf::30                     4009                       # What write queue length does an incoming req see
system.physmem.wrQLenPdf::31                     4009                       # What write queue length does an incoming req see
system.physmem.wrQLenPdf::32                     4009                       # What write queue length does an incoming req see
system.physmem.wrQLenPdf::33                        0                       # What write queue length does an incoming req see
system.physmem.wrQLenPdf::34                        0                       # What write queue length does an incoming req see
system.physmem.wrQLenPdf::35                        0                       # What write queue length does an incoming req see
system.physmem.wrQLenPdf::36                        0                       # What write queue length does an incoming req see
system.physmem.wrQLenPdf::37                        0                       # What write queue length does an incoming req see
system.physmem.wrQLenPdf::38                        0                       # What write queue length does an incoming req see
system.physmem.wrQLenPdf::39                        0                       # What write queue length does an incoming req see
system.physmem.wrQLenPdf::40                        0                       # What write queue length does an incoming req see
system.physmem.wrQLenPdf::41                        0                       # What write queue length does an incoming req see
system.physmem.wrQLenPdf::42                        0                       # What write queue length does an incoming req see
system.physmem.wrQLenPdf::43                        0                       # What write queue length does an incoming req see
system.physmem.wrQLenPdf::44                        0                       # What write queue length does an incoming req see
system.physmem.wrQLenPdf::45                        0                       # What write queue length does an incoming req see
system.physmem.wrQLenPdf::46                        0                       # What write queue length does an incoming req see
system.physmem.wrQLenPdf::47                        0                       # What write queue length does an incoming req see
system.physmem.wrQLenPdf::48                        0                       # What write queue length does an incoming req see
system.physmem.wrQLenPdf::49                        0                       # What write queue length does an incoming req see
system.physmem.wrQLenPdf::50                        0                       # What write queue length does an incoming req see
system.physmem.wrQLenPdf::51                        0                       # What write queue length does an incoming req see
system.physmem.wrQLenPdf::52                        0                       # What write queue length does an incoming req see
system.physmem.wrQLenPdf::53                        0                       # What write queue length does an incoming req see
system.physmem.wrQLenPdf::54                        0                       # What write queue length does an incoming req see
system.physmem.wrQLenPdf::55                        0                       # What write queue length does an incoming req see
system.physmem.wrQLenPdf::56                        0                       # What write queue length does an incoming req see
system.physmem.wrQLenPdf::57                        0                       # What write queue length does an incoming req see
system.physmem.wrQLenPdf::58                        0                       # What write queue length does an incoming req see
system.physmem.wrQLenPdf::59                        0                       # What write queue length does an incoming req see
system.physmem.wrQLenPdf::60                        0                       # What write queue length does an incoming req see
system.physmem.wrQLenPdf::61                        0                       # What write queue length does an incoming req see
system.physmem.wrQLenPdf::62                        0                       # What write queue length does an incoming req see
system.physmem.wrQLenPdf::63                        0                       # What write queue length does an incoming req see
system.physmem.bytesPerActivate::samples       112123                       # Bytes accessed per row activation
system.physmem.bytesPerActivate::mean      203.355529                       # Bytes accessed per row activation
system.physmem.bytesPerActivate::gmean     132.415015                       # Bytes accessed per row activation
system.physmem.bytesPerActivate::stdev     254.574164                       # Bytes accessed per row activation
system.physmem.bytesPerActivate::0-127          47170     42.07%     42.07% # Bytes accessed per row activation
system.physmem.bytesPerActivate::128-255        43612     38.90%     80.97% # Bytes accessed per row activation
system.physmem.bytesPerActivate::256-383         9039      8.06%     89.03% # Bytes accessed per row activation
system.physmem.bytesPerActivate::384-511         1917      1.71%     90.74% # Bytes accessed per row activation
system.physmem.bytesPerActivate::512-639          483      0.43%     91.17% # Bytes accessed per row activation
system.physmem.bytesPerActivate::640-767          738      0.66%     91.83% # Bytes accessed per row activation
system.physmem.bytesPerActivate::768-895          730      0.65%     92.48% # Bytes accessed per row activation
system.physmem.bytesPerActivate::896-1023          502      0.45%     92.93% # Bytes accessed per row activation
system.physmem.bytesPerActivate::1024-1151         7932      7.07%    100.00% # Bytes accessed per row activation
system.physmem.bytesPerActivate::total         112123                       # Bytes accessed per row activation
system.physmem.rdPerTurnAround::samples          4009                       # Reads before turning the bus around for writes
system.physmem.rdPerTurnAround::mean        48.524570                       # Reads before turning the bus around for writes
system.physmem.rdPerTurnAround::gmean       36.058155                       # Reads before turning the bus around for writes
system.physmem.rdPerTurnAround::stdev      507.570273                       # Reads before turning the bus around for writes
system.physmem.rdPerTurnAround::0-1023           4006     99.93%     99.93% # Reads before turning the bus around for writes
system.physmem.rdPerTurnAround::1024-2047            1      0.02%     99.95% # Reads before turning the bus around for writes
system.physmem.rdPerTurnAround::2048-3071            1      0.02%     99.98% # Reads before turning the bus around for writes
system.physmem.rdPerTurnAround::31744-32767            1      0.02%    100.00% # Reads before turning the bus around for writes
system.physmem.rdPerTurnAround::total            4009                       # Reads before turning the bus around for writes
system.physmem.wrPerTurnAround::samples          4009                       # Writes before turning the bus around for reads
system.physmem.wrPerTurnAround::mean        16.480918                       # Writes before turning the bus around for reads
system.physmem.wrPerTurnAround::gmean       16.459590                       # Writes before turning the bus around for reads
system.physmem.wrPerTurnAround::stdev        0.855706                       # Writes before turning the bus around for reads
system.physmem.wrPerTurnAround::16               3046     75.98%     75.98% # Writes before turning the bus around for reads
system.physmem.wrPerTurnAround::18                961     23.97%     99.95% # Writes before turning the bus around for reads
system.physmem.wrPerTurnAround::19                  2      0.05%    100.00% # Writes before turning the bus around for reads
system.physmem.wrPerTurnAround::total            4009                       # Writes before turning the bus around for reads
system.physmem.totQLat                     2883248250                       # Total ticks spent queuing
system.physmem.totMemAccLat                8324929500                       # Total ticks spent from burst creation until serviced by the DRAM
system.physmem.totBusLat                   1451115000                       # Total ticks spent in databus transfers
system.physmem.avgQLat                        9934.60                       # Average queueing delay per DRAM burst
system.physmem.avgBusLat                      5000.00                       # Average bus latency per DRAM burst
system.physmem.avgMemAccLat                  28684.60                       # Average memory access latency per DRAM burst
system.physmem.avgRdBW                          34.28                       # Average DRAM read bandwidth in MiByte/s
system.physmem.avgWrBW                           7.81                       # Average achieved write bandwidth in MiByte/s
system.physmem.avgRdBWSys                       34.32                       # Average system read bandwidth in MiByte/s
system.physmem.avgWrBWSys                        7.81                       # Average system write bandwidth in MiByte/s
system.physmem.peakBW                        12800.00                       # Theoretical peak bandwidth in MiByte/s
system.physmem.busUtil                           0.33                       # Data bus utilization in percentage
system.physmem.busUtilRead                       0.27                       # Data bus utilization in percentage for reads
system.physmem.busUtilWrite                      0.06                       # Data bus utilization in percentage for writes
system.physmem.avgRdQLen                         1.00                       # Average read queue length when enqueuing
system.physmem.avgWrQLen                        25.18                       # Average write queue length when enqueuing
system.physmem.readRowHits                     194064                       # Number of row buffer hits during reads
system.physmem.writeRowHits                     50094                       # Number of row buffer hits during writes
system.physmem.readRowHitRate                   66.87                       # Row buffer hit rate for reads
system.physmem.writeRowHitRate                  75.79                       # Row buffer hit rate for writes
system.physmem.avgGap                      1519154.99                       # Average gap between requests
system.physmem.pageHitRate                      68.52                       # Row buffer hit rate, read and write combined
system.physmem_0.actEnergy                  423874080                       # Energy for activate commands per rank (pJ)
system.physmem_0.preEnergy                  231280500                       # Energy for precharge commands per rank (pJ)
system.physmem_0.readEnergy                1134198000                       # Energy for read commands per rank (pJ)
system.physmem_0.writeEnergy                215622000                       # Energy for write commands per rank (pJ)
system.physmem_0.refreshEnergy            35385604800                       # Energy for refresh commands per rank (pJ)
system.physmem_0.actBackEnergy           107588305125                       # Energy for active background per rank (pJ)
system.physmem_0.preBackEnergy           230684814750                       # Energy for precharge background per rank (pJ)
system.physmem_0.totalEnergy             375663699255                       # Total energy per rank (pJ)
system.physmem_0.averagePower              693.403859                       # Core power per rank (mW)
system.physmem_0.memoryStateTime::IDLE   383052702750                       # Time in different power states
system.physmem_0.memoryStateTime::REF     18090800000                       # Time in different power states
system.physmem_0.memoryStateTime::PRE_PDN            0                       # Time in different power states
system.physmem_0.memoryStateTime::ACT    140624192250                       # Time in different power states
system.physmem_0.memoryStateTime::ACT_PDN            0                       # Time in different power states
system.physmem_1.actEnergy                  423692640                       # Energy for activate commands per rank (pJ)
system.physmem_1.preEnergy                  231181500                       # Energy for precharge commands per rank (pJ)
system.physmem_1.readEnergy                1129104600                       # Energy for read commands per rank (pJ)
system.physmem_1.writeEnergy                212524560                       # Energy for write commands per rank (pJ)
system.physmem_1.refreshEnergy            35385604800                       # Energy for refresh commands per rank (pJ)
system.physmem_1.actBackEnergy           107075040930                       # Energy for active background per rank (pJ)
system.physmem_1.preBackEnergy           231135046500                       # Energy for precharge background per rank (pJ)
system.physmem_1.totalEnergy             375592195530                       # Total energy per rank (pJ)
system.physmem_1.averagePower              693.271876                       # Core power per rank (mW)
system.physmem_1.memoryStateTime::IDLE   383804077000                       # Time in different power states
system.physmem_1.memoryStateTime::REF     18090800000                       # Time in different power states
system.physmem_1.memoryStateTime::PRE_PDN            0                       # Time in different power states
system.physmem_1.memoryStateTime::ACT    139874284500                       # Time in different power states
system.physmem_1.memoryStateTime::ACT_PDN            0                       # Time in different power states
system.cpu.branchPred.lookups               156119313                       # Number of BP lookups
system.cpu.branchPred.condPredicted         106151666                       # Number of conditional branches predicted
system.cpu.branchPred.condIncorrect          12881666                       # Number of conditional branches incorrect
system.cpu.branchPred.BTBLookups             90098747                       # Number of BTB lookups
system.cpu.branchPred.BTBHits                82494804                       # Number of BTB hits
system.cpu.branchPred.BTBCorrect                    0                       # Number of correct BTB predictions (this stat may not work properly.
system.cpu.branchPred.BTBHitPct             91.560434                       # BTB Hit Percentage
system.cpu.branchPred.usedRAS                19276925                       # Number of times the RAS was used to get a target.
system.cpu.branchPred.RASInCorrect               1327                       # Number of incorrect RAS predictions.
system.cpu_clk_domain.clock                       500                       # Clock period in ticks
system.cpu.dstage2_mmu.stage2_tlb.walker.walks            0                       # Table walker walks requested
system.cpu.dstage2_mmu.stage2_tlb.walker.walkRequestOrigin_Requested::Data            0                       # Table walker requests started/completed, data/inst
system.cpu.dstage2_mmu.stage2_tlb.walker.walkRequestOrigin_Requested::Inst            0                       # Table walker requests started/completed, data/inst
system.cpu.dstage2_mmu.stage2_tlb.walker.walkRequestOrigin_Requested::total            0                       # Table walker requests started/completed, data/inst
system.cpu.dstage2_mmu.stage2_tlb.walker.walkRequestOrigin_Completed::Data            0                       # Table walker requests started/completed, data/inst
system.cpu.dstage2_mmu.stage2_tlb.walker.walkRequestOrigin_Completed::Inst            0                       # Table walker requests started/completed, data/inst
system.cpu.dstage2_mmu.stage2_tlb.walker.walkRequestOrigin_Completed::total            0                       # Table walker requests started/completed, data/inst
system.cpu.dstage2_mmu.stage2_tlb.walker.walkRequestOrigin::total            0                       # Table walker requests started/completed, data/inst
system.cpu.dstage2_mmu.stage2_tlb.inst_hits            0                       # ITB inst hits
system.cpu.dstage2_mmu.stage2_tlb.inst_misses            0                       # ITB inst misses
system.cpu.dstage2_mmu.stage2_tlb.read_hits            0                       # DTB read hits
system.cpu.dstage2_mmu.stage2_tlb.read_misses            0                       # DTB read misses
system.cpu.dstage2_mmu.stage2_tlb.write_hits            0                       # DTB write hits
system.cpu.dstage2_mmu.stage2_tlb.write_misses            0                       # DTB write misses
system.cpu.dstage2_mmu.stage2_tlb.flush_tlb            0                       # Number of times complete TLB was flushed
system.cpu.dstage2_mmu.stage2_tlb.flush_tlb_mva            0                       # Number of times TLB was flushed by MVA
system.cpu.dstage2_mmu.stage2_tlb.flush_tlb_mva_asid            0                       # Number of times TLB was flushed by MVA & ASID
system.cpu.dstage2_mmu.stage2_tlb.flush_tlb_asid            0                       # Number of times TLB was flushed by ASID
system.cpu.dstage2_mmu.stage2_tlb.flush_entries            0                       # Number of entries that have been flushed from TLB
system.cpu.dstage2_mmu.stage2_tlb.align_faults            0                       # Number of TLB faults due to alignment restrictions
system.cpu.dstage2_mmu.stage2_tlb.prefetch_faults            0                       # Number of TLB faults due to prefetch
system.cpu.dstage2_mmu.stage2_tlb.domain_faults            0                       # Number of TLB faults due to domain restrictions
system.cpu.dstage2_mmu.stage2_tlb.perms_faults            0                       # Number of TLB faults due to permissions restrictions
system.cpu.dstage2_mmu.stage2_tlb.read_accesses            0                       # DTB read accesses
system.cpu.dstage2_mmu.stage2_tlb.write_accesses            0                       # DTB write accesses
system.cpu.dstage2_mmu.stage2_tlb.inst_accesses            0                       # ITB inst accesses
system.cpu.dstage2_mmu.stage2_tlb.hits              0                       # DTB hits
system.cpu.dstage2_mmu.stage2_tlb.misses            0                       # DTB misses
system.cpu.dstage2_mmu.stage2_tlb.accesses            0                       # DTB accesses
system.cpu.dtb.walker.walks                         0                       # Table walker walks requested
system.cpu.dtb.walker.walkRequestOrigin_Requested::Data            0                       # Table walker requests started/completed, data/inst
system.cpu.dtb.walker.walkRequestOrigin_Requested::Inst            0                       # Table walker requests started/completed, data/inst
system.cpu.dtb.walker.walkRequestOrigin_Requested::total            0                       # Table walker requests started/completed, data/inst
system.cpu.dtb.walker.walkRequestOrigin_Completed::Data            0                       # Table walker requests started/completed, data/inst
system.cpu.dtb.walker.walkRequestOrigin_Completed::Inst            0                       # Table walker requests started/completed, data/inst
system.cpu.dtb.walker.walkRequestOrigin_Completed::total            0                       # Table walker requests started/completed, data/inst
system.cpu.dtb.walker.walkRequestOrigin::total            0                       # Table walker requests started/completed, data/inst
system.cpu.dtb.inst_hits                            0                       # ITB inst hits
system.cpu.dtb.inst_misses                          0                       # ITB inst misses
system.cpu.dtb.read_hits                            0                       # DTB read hits
system.cpu.dtb.read_misses                          0                       # DTB read misses
system.cpu.dtb.write_hits                           0                       # DTB write hits
system.cpu.dtb.write_misses                         0                       # DTB write misses
system.cpu.dtb.flush_tlb                            0                       # Number of times complete TLB was flushed
system.cpu.dtb.flush_tlb_mva                        0                       # Number of times TLB was flushed by MVA
system.cpu.dtb.flush_tlb_mva_asid                   0                       # Number of times TLB was flushed by MVA & ASID
system.cpu.dtb.flush_tlb_asid                       0                       # Number of times TLB was flushed by ASID
system.cpu.dtb.flush_entries                        0                       # Number of entries that have been flushed from TLB
system.cpu.dtb.align_faults                         0                       # Number of TLB faults due to alignment restrictions
system.cpu.dtb.prefetch_faults                      0                       # Number of TLB faults due to prefetch
system.cpu.dtb.domain_faults                        0                       # Number of TLB faults due to domain restrictions
system.cpu.dtb.perms_faults                         0                       # Number of TLB faults due to permissions restrictions
system.cpu.dtb.read_accesses                        0                       # DTB read accesses
system.cpu.dtb.write_accesses                       0                       # DTB write accesses
system.cpu.dtb.inst_accesses                        0                       # ITB inst accesses
system.cpu.dtb.hits                                 0                       # DTB hits
system.cpu.dtb.misses                               0                       # DTB misses
system.cpu.dtb.accesses                             0                       # DTB accesses
system.cpu.istage2_mmu.stage2_tlb.walker.walks            0                       # Table walker walks requested
system.cpu.istage2_mmu.stage2_tlb.walker.walkRequestOrigin_Requested::Data            0                       # Table walker requests started/completed, data/inst
system.cpu.istage2_mmu.stage2_tlb.walker.walkRequestOrigin_Requested::Inst            0                       # Table walker requests started/completed, data/inst
system.cpu.istage2_mmu.stage2_tlb.walker.walkRequestOrigin_Requested::total            0                       # Table walker requests started/completed, data/inst
system.cpu.istage2_mmu.stage2_tlb.walker.walkRequestOrigin_Completed::Data            0                       # Table walker requests started/completed, data/inst
system.cpu.istage2_mmu.stage2_tlb.walker.walkRequestOrigin_Completed::Inst            0                       # Table walker requests started/completed, data/inst
system.cpu.istage2_mmu.stage2_tlb.walker.walkRequestOrigin_Completed::total            0                       # Table walker requests started/completed, data/inst
system.cpu.istage2_mmu.stage2_tlb.walker.walkRequestOrigin::total            0                       # Table walker requests started/completed, data/inst
system.cpu.istage2_mmu.stage2_tlb.inst_hits            0                       # ITB inst hits
system.cpu.istage2_mmu.stage2_tlb.inst_misses            0                       # ITB inst misses
system.cpu.istage2_mmu.stage2_tlb.read_hits            0                       # DTB read hits
system.cpu.istage2_mmu.stage2_tlb.read_misses            0                       # DTB read misses
system.cpu.istage2_mmu.stage2_tlb.write_hits            0                       # DTB write hits
system.cpu.istage2_mmu.stage2_tlb.write_misses            0                       # DTB write misses
system.cpu.istage2_mmu.stage2_tlb.flush_tlb            0                       # Number of times complete TLB was flushed
system.cpu.istage2_mmu.stage2_tlb.flush_tlb_mva            0                       # Number of times TLB was flushed by MVA
system.cpu.istage2_mmu.stage2_tlb.flush_tlb_mva_asid            0                       # Number of times TLB was flushed by MVA & ASID
system.cpu.istage2_mmu.stage2_tlb.flush_tlb_asid            0                       # Number of times TLB was flushed by ASID
system.cpu.istage2_mmu.stage2_tlb.flush_entries            0                       # Number of entries that have been flushed from TLB
system.cpu.istage2_mmu.stage2_tlb.align_faults            0                       # Number of TLB faults due to alignment restrictions
system.cpu.istage2_mmu.stage2_tlb.prefetch_faults            0                       # Number of TLB faults due to prefetch
system.cpu.istage2_mmu.stage2_tlb.domain_faults            0                       # Number of TLB faults due to domain restrictions
system.cpu.istage2_mmu.stage2_tlb.perms_faults            0                       # Number of TLB faults due to permissions restrictions
system.cpu.istage2_mmu.stage2_tlb.read_accesses            0                       # DTB read accesses
system.cpu.istage2_mmu.stage2_tlb.write_accesses            0                       # DTB write accesses
system.cpu.istage2_mmu.stage2_tlb.inst_accesses            0                       # ITB inst accesses
system.cpu.istage2_mmu.stage2_tlb.hits              0                       # DTB hits
system.cpu.istage2_mmu.stage2_tlb.misses            0                       # DTB misses
system.cpu.istage2_mmu.stage2_tlb.accesses            0                       # DTB accesses
system.cpu.itb.walker.walks                         0                       # Table walker walks requested
system.cpu.itb.walker.walkRequestOrigin_Requested::Data            0                       # Table walker requests started/completed, data/inst
system.cpu.itb.walker.walkRequestOrigin_Requested::Inst            0                       # Table walker requests started/completed, data/inst
system.cpu.itb.walker.walkRequestOrigin_Requested::total            0                       # Table walker requests started/completed, data/inst
system.cpu.itb.walker.walkRequestOrigin_Completed::Data            0                       # Table walker requests started/completed, data/inst
system.cpu.itb.walker.walkRequestOrigin_Completed::Inst            0                       # Table walker requests started/completed, data/inst
system.cpu.itb.walker.walkRequestOrigin_Completed::total            0                       # Table walker requests started/completed, data/inst
system.cpu.itb.walker.walkRequestOrigin::total            0                       # Table walker requests started/completed, data/inst
system.cpu.itb.inst_hits                            0                       # ITB inst hits
system.cpu.itb.inst_misses                          0                       # ITB inst misses
system.cpu.itb.read_hits                            0                       # DTB read hits
system.cpu.itb.read_misses                          0                       # DTB read misses
system.cpu.itb.write_hits                           0                       # DTB write hits
system.cpu.itb.write_misses                         0                       # DTB write misses
system.cpu.itb.flush_tlb                            0                       # Number of times complete TLB was flushed
system.cpu.itb.flush_tlb_mva                        0                       # Number of times TLB was flushed by MVA
system.cpu.itb.flush_tlb_mva_asid                   0                       # Number of times TLB was flushed by MVA & ASID
system.cpu.itb.flush_tlb_asid                       0                       # Number of times TLB was flushed by ASID
system.cpu.itb.flush_entries                        0                       # Number of entries that have been flushed from TLB
system.cpu.itb.align_faults                         0                       # Number of TLB faults due to alignment restrictions
system.cpu.itb.prefetch_faults                      0                       # Number of TLB faults due to prefetch
system.cpu.itb.domain_faults                        0                       # Number of TLB faults due to domain restrictions
system.cpu.itb.perms_faults                         0                       # Number of TLB faults due to permissions restrictions
system.cpu.itb.read_accesses                        0                       # DTB read accesses
system.cpu.itb.write_accesses                       0                       # DTB write accesses
system.cpu.itb.inst_accesses                        0                       # ITB inst accesses
system.cpu.itb.hits                                 0                       # DTB hits
system.cpu.itb.misses                               0                       # DTB misses
system.cpu.itb.accesses                             0                       # DTB accesses
system.cpu.workload.num_syscalls                  673                       # Number of system calls
system.cpu.numCycles                       1083546599                       # number of cpu cycles simulated
system.cpu.numWorkItemsStarted                      0                       # number of work items this cpu started
system.cpu.numWorkItemsCompleted                    0                       # number of work items this cpu completed
system.cpu.committedInsts                   640655085                       # Number of instructions committed
system.cpu.committedOps                     788730744                       # Number of ops (including micro ops) committed
system.cpu.discardedOps                      23911488                       # Number of ops (including micro ops) which were discarded before commit
system.cpu.numFetchSuspends                         0                       # Number of times Execute suspended instruction fetching
system.cpu.cpi                               1.691310                       # CPI: cycles per instruction
system.cpu.ipc                               0.591258                       # IPC: instructions per cycle
system.cpu.tickCycles                      1025165387                       # Number of cycles that the object actually ticked
system.cpu.idleCycles                        58381212                       # Total number of cycles that the object has spent stopped
system.cpu.dcache.tags.replacements            778275                       # number of replacements
system.cpu.dcache.tags.tagsinuse          4092.437677                       # Cycle average of tags in use
system.cpu.dcache.tags.total_refs           378454072                       # Total number of references to valid blocks.
system.cpu.dcache.tags.sampled_refs            782371                       # Sample count of references to valid blocks.
system.cpu.dcache.tags.avg_refs            483.727122                       # Average number of references to valid blocks.
system.cpu.dcache.tags.warmup_cycle         802618250                       # Cycle when the warmup percentage was hit.
system.cpu.dcache.tags.occ_blocks::cpu.data  4092.437677                       # Average occupied blocks per requestor
system.cpu.dcache.tags.occ_percent::cpu.data     0.999130                       # Average percentage of cache occupancy
system.cpu.dcache.tags.occ_percent::total     0.999130                       # Average percentage of cache occupancy
system.cpu.dcache.tags.occ_task_id_blocks::1024         4096                       # Occupied blocks per task id
system.cpu.dcache.tags.age_task_id_blocks_1024::0           30                       # Occupied blocks per task id
system.cpu.dcache.tags.age_task_id_blocks_1024::1          172                       # Occupied blocks per task id
system.cpu.dcache.tags.age_task_id_blocks_1024::2          963                       # Occupied blocks per task id
system.cpu.dcache.tags.age_task_id_blocks_1024::3         1345                       # Occupied blocks per task id
system.cpu.dcache.tags.age_task_id_blocks_1024::4         1586                       # Occupied blocks per task id
system.cpu.dcache.tags.occ_task_id_percent::1024            1                       # Percentage of cache occupancy per task id
system.cpu.dcache.tags.tag_accesses         759393811                       # Number of tag accesses
system.cpu.dcache.tags.data_accesses        759393811                       # Number of data accesses
system.cpu.dcache.ReadReq_hits::cpu.data    249625343                       # number of ReadReq hits
system.cpu.dcache.ReadReq_hits::total       249625343                       # number of ReadReq hits
system.cpu.dcache.WriteReq_hits::cpu.data    128813766                       # number of WriteReq hits
system.cpu.dcache.WriteReq_hits::total      128813766                       # number of WriteReq hits
system.cpu.dcache.SoftPFReq_hits::cpu.data         3485                       # number of SoftPFReq hits
system.cpu.dcache.SoftPFReq_hits::total          3485                       # number of SoftPFReq hits
system.cpu.dcache.LoadLockedReq_hits::cpu.data         5739                       # number of LoadLockedReq hits
system.cpu.dcache.LoadLockedReq_hits::total         5739                       # number of LoadLockedReq hits
system.cpu.dcache.StoreCondReq_hits::cpu.data         5739                       # number of StoreCondReq hits
system.cpu.dcache.StoreCondReq_hits::total         5739                       # number of StoreCondReq hits
system.cpu.dcache.demand_hits::cpu.data     378439109                       # number of demand (read+write) hits
system.cpu.dcache.demand_hits::total        378439109                       # number of demand (read+write) hits
system.cpu.dcache.overall_hits::cpu.data    378442594                       # number of overall hits
system.cpu.dcache.overall_hits::total       378442594                       # number of overall hits
system.cpu.dcache.ReadReq_misses::cpu.data       713796                       # number of ReadReq misses
system.cpu.dcache.ReadReq_misses::total        713796                       # number of ReadReq misses
system.cpu.dcache.WriteReq_misses::cpu.data       137711                       # number of WriteReq misses
system.cpu.dcache.WriteReq_misses::total       137711                       # number of WriteReq misses
system.cpu.dcache.SoftPFReq_misses::cpu.data          141                       # number of SoftPFReq misses
system.cpu.dcache.SoftPFReq_misses::total          141                       # number of SoftPFReq misses
system.cpu.dcache.demand_misses::cpu.data       851507                       # number of demand (read+write) misses
system.cpu.dcache.demand_misses::total         851507                       # number of demand (read+write) misses
system.cpu.dcache.overall_misses::cpu.data       851648                       # number of overall misses
system.cpu.dcache.overall_misses::total        851648                       # number of overall misses
system.cpu.dcache.ReadReq_miss_latency::cpu.data  24839025218                       # number of ReadReq miss cycles
system.cpu.dcache.ReadReq_miss_latency::total  24839025218                       # number of ReadReq miss cycles
system.cpu.dcache.WriteReq_miss_latency::cpu.data  10202615750                       # number of WriteReq miss cycles
system.cpu.dcache.WriteReq_miss_latency::total  10202615750                       # number of WriteReq miss cycles
system.cpu.dcache.demand_miss_latency::cpu.data  35041640968                       # number of demand (read+write) miss cycles
system.cpu.dcache.demand_miss_latency::total  35041640968                       # number of demand (read+write) miss cycles
system.cpu.dcache.overall_miss_latency::cpu.data  35041640968                       # number of overall miss cycles
system.cpu.dcache.overall_miss_latency::total  35041640968                       # number of overall miss cycles
system.cpu.dcache.ReadReq_accesses::cpu.data    250339139                       # number of ReadReq accesses(hits+misses)
system.cpu.dcache.ReadReq_accesses::total    250339139                       # number of ReadReq accesses(hits+misses)
system.cpu.dcache.WriteReq_accesses::cpu.data    128951477                       # number of WriteReq accesses(hits+misses)
system.cpu.dcache.WriteReq_accesses::total    128951477                       # number of WriteReq accesses(hits+misses)
system.cpu.dcache.SoftPFReq_accesses::cpu.data         3626                       # number of SoftPFReq accesses(hits+misses)
system.cpu.dcache.SoftPFReq_accesses::total         3626                       # number of SoftPFReq accesses(hits+misses)
system.cpu.dcache.LoadLockedReq_accesses::cpu.data         5739                       # number of LoadLockedReq accesses(hits+misses)
system.cpu.dcache.LoadLockedReq_accesses::total         5739                       # number of LoadLockedReq accesses(hits+misses)
system.cpu.dcache.StoreCondReq_accesses::cpu.data         5739                       # number of StoreCondReq accesses(hits+misses)
system.cpu.dcache.StoreCondReq_accesses::total         5739                       # number of StoreCondReq accesses(hits+misses)
system.cpu.dcache.demand_accesses::cpu.data    379290616                       # number of demand (read+write) accesses
system.cpu.dcache.demand_accesses::total    379290616                       # number of demand (read+write) accesses
system.cpu.dcache.overall_accesses::cpu.data    379294242                       # number of overall (read+write) accesses
system.cpu.dcache.overall_accesses::total    379294242                       # number of overall (read+write) accesses
system.cpu.dcache.ReadReq_miss_rate::cpu.data     0.002851                       # miss rate for ReadReq accesses
system.cpu.dcache.ReadReq_miss_rate::total     0.002851                       # miss rate for ReadReq accesses
system.cpu.dcache.WriteReq_miss_rate::cpu.data     0.001068                       # miss rate for WriteReq accesses
system.cpu.dcache.WriteReq_miss_rate::total     0.001068                       # miss rate for WriteReq accesses
system.cpu.dcache.SoftPFReq_miss_rate::cpu.data     0.038886                       # miss rate for SoftPFReq accesses
system.cpu.dcache.SoftPFReq_miss_rate::total     0.038886                       # miss rate for SoftPFReq accesses
system.cpu.dcache.demand_miss_rate::cpu.data     0.002245                       # miss rate for demand accesses
system.cpu.dcache.demand_miss_rate::total     0.002245                       # miss rate for demand accesses
system.cpu.dcache.overall_miss_rate::cpu.data     0.002245                       # miss rate for overall accesses
system.cpu.dcache.overall_miss_rate::total     0.002245                       # miss rate for overall accesses
system.cpu.dcache.ReadReq_avg_miss_latency::cpu.data 34798.493152                       # average ReadReq miss latency
system.cpu.dcache.ReadReq_avg_miss_latency::total 34798.493152                       # average ReadReq miss latency
system.cpu.dcache.WriteReq_avg_miss_latency::cpu.data 74087.151716                       # average WriteReq miss latency
system.cpu.dcache.WriteReq_avg_miss_latency::total 74087.151716                       # average WriteReq miss latency
system.cpu.dcache.demand_avg_miss_latency::cpu.data 41152.499002                       # average overall miss latency
system.cpu.dcache.demand_avg_miss_latency::total 41152.499002                       # average overall miss latency
system.cpu.dcache.overall_avg_miss_latency::cpu.data 41145.685739                       # average overall miss latency
system.cpu.dcache.overall_avg_miss_latency::total 41145.685739                       # average overall miss latency
system.cpu.dcache.blocked_cycles::no_mshrs            0                       # number of cycles access was blocked
system.cpu.dcache.blocked_cycles::no_targets            0                       # number of cycles access was blocked
system.cpu.dcache.blocked::no_mshrs                 0                       # number of cycles access was blocked
system.cpu.dcache.blocked::no_targets               0                       # number of cycles access was blocked
system.cpu.dcache.avg_blocked_cycles::no_mshrs          nan                       # average number of cycles each access was blocked
system.cpu.dcache.avg_blocked_cycles::no_targets          nan                       # average number of cycles each access was blocked
system.cpu.dcache.fast_writes                       0                       # number of fast writes performed
system.cpu.dcache.cache_copies                      0                       # number of cache copies performed
system.cpu.dcache.writebacks::writebacks        91420                       # number of writebacks
system.cpu.dcache.writebacks::total             91420                       # number of writebacks
system.cpu.dcache.ReadReq_mshr_hits::cpu.data          886                       # number of ReadReq MSHR hits
system.cpu.dcache.ReadReq_mshr_hits::total          886                       # number of ReadReq MSHR hits
system.cpu.dcache.WriteReq_mshr_hits::cpu.data        68389                       # number of WriteReq MSHR hits
system.cpu.dcache.WriteReq_mshr_hits::total        68389                       # number of WriteReq MSHR hits
system.cpu.dcache.demand_mshr_hits::cpu.data        69275                       # number of demand (read+write) MSHR hits
system.cpu.dcache.demand_mshr_hits::total        69275                       # number of demand (read+write) MSHR hits
system.cpu.dcache.overall_mshr_hits::cpu.data        69275                       # number of overall MSHR hits
system.cpu.dcache.overall_mshr_hits::total        69275                       # number of overall MSHR hits
system.cpu.dcache.ReadReq_mshr_misses::cpu.data       712910                       # number of ReadReq MSHR misses
system.cpu.dcache.ReadReq_mshr_misses::total       712910                       # number of ReadReq MSHR misses
system.cpu.dcache.WriteReq_mshr_misses::cpu.data        69322                       # number of WriteReq MSHR misses
system.cpu.dcache.WriteReq_mshr_misses::total        69322                       # number of WriteReq MSHR misses
system.cpu.dcache.SoftPFReq_mshr_misses::cpu.data          139                       # number of SoftPFReq MSHR misses
system.cpu.dcache.SoftPFReq_mshr_misses::total          139                       # number of SoftPFReq MSHR misses
system.cpu.dcache.demand_mshr_misses::cpu.data       782232                       # number of demand (read+write) MSHR misses
system.cpu.dcache.demand_mshr_misses::total       782232                       # number of demand (read+write) MSHR misses
system.cpu.dcache.overall_mshr_misses::cpu.data       782371                       # number of overall MSHR misses
system.cpu.dcache.overall_mshr_misses::total       782371                       # number of overall MSHR misses
system.cpu.dcache.ReadReq_mshr_miss_latency::cpu.data  23683196777                       # number of ReadReq MSHR miss cycles
system.cpu.dcache.ReadReq_mshr_miss_latency::total  23683196777                       # number of ReadReq MSHR miss cycles
system.cpu.dcache.WriteReq_mshr_miss_latency::cpu.data   5051765250                       # number of WriteReq MSHR miss cycles
system.cpu.dcache.WriteReq_mshr_miss_latency::total   5051765250                       # number of WriteReq MSHR miss cycles
system.cpu.dcache.SoftPFReq_mshr_miss_latency::cpu.data      1719000                       # number of SoftPFReq MSHR miss cycles
system.cpu.dcache.SoftPFReq_mshr_miss_latency::total      1719000                       # number of SoftPFReq MSHR miss cycles
system.cpu.dcache.demand_mshr_miss_latency::cpu.data  28734962027                       # number of demand (read+write) MSHR miss cycles
system.cpu.dcache.demand_mshr_miss_latency::total  28734962027                       # number of demand (read+write) MSHR miss cycles
system.cpu.dcache.overall_mshr_miss_latency::cpu.data  28736681027                       # number of overall MSHR miss cycles
system.cpu.dcache.overall_mshr_miss_latency::total  28736681027                       # number of overall MSHR miss cycles
system.cpu.dcache.ReadReq_mshr_miss_rate::cpu.data     0.002848                       # mshr miss rate for ReadReq accesses
system.cpu.dcache.ReadReq_mshr_miss_rate::total     0.002848                       # mshr miss rate for ReadReq accesses
system.cpu.dcache.WriteReq_mshr_miss_rate::cpu.data     0.000538                       # mshr miss rate for WriteReq accesses
system.cpu.dcache.WriteReq_mshr_miss_rate::total     0.000538                       # mshr miss rate for WriteReq accesses
system.cpu.dcache.SoftPFReq_mshr_miss_rate::cpu.data     0.038334                       # mshr miss rate for SoftPFReq accesses
system.cpu.dcache.SoftPFReq_mshr_miss_rate::total     0.038334                       # mshr miss rate for SoftPFReq accesses
system.cpu.dcache.demand_mshr_miss_rate::cpu.data     0.002062                       # mshr miss rate for demand accesses
system.cpu.dcache.demand_mshr_miss_rate::total     0.002062                       # mshr miss rate for demand accesses
system.cpu.dcache.overall_mshr_miss_rate::cpu.data     0.002063                       # mshr miss rate for overall accesses
system.cpu.dcache.overall_mshr_miss_rate::total     0.002063                       # mshr miss rate for overall accesses
system.cpu.dcache.ReadReq_avg_mshr_miss_latency::cpu.data 33220.458090                       # average ReadReq mshr miss latency
system.cpu.dcache.ReadReq_avg_mshr_miss_latency::total 33220.458090                       # average ReadReq mshr miss latency
system.cpu.dcache.WriteReq_avg_mshr_miss_latency::cpu.data 72873.910880                       # average WriteReq mshr miss latency
system.cpu.dcache.WriteReq_avg_mshr_miss_latency::total 72873.910880                       # average WriteReq mshr miss latency
system.cpu.dcache.SoftPFReq_avg_mshr_miss_latency::cpu.data 12366.906475                       # average SoftPFReq mshr miss latency
system.cpu.dcache.SoftPFReq_avg_mshr_miss_latency::total 12366.906475                       # average SoftPFReq mshr miss latency
system.cpu.dcache.demand_avg_mshr_miss_latency::cpu.data 36734.577500                       # average overall mshr miss latency
system.cpu.dcache.demand_avg_mshr_miss_latency::total 36734.577500                       # average overall mshr miss latency
system.cpu.dcache.overall_avg_mshr_miss_latency::cpu.data 36730.248216                       # average overall mshr miss latency
system.cpu.dcache.overall_avg_mshr_miss_latency::total 36730.248216                       # average overall mshr miss latency
system.cpu.dcache.no_allocate_misses                0                       # Number of misses that were no-allocate
system.cpu.icache.tags.replacements             23596                       # number of replacements
system.cpu.icache.tags.tagsinuse          1712.059457                       # Cycle average of tags in use
system.cpu.icache.tags.total_refs           290105857                       # Total number of references to valid blocks.
system.cpu.icache.tags.sampled_refs             25347                       # Sample count of references to valid blocks.
system.cpu.icache.tags.avg_refs          11445.372510                       # Average number of references to valid blocks.
system.cpu.icache.tags.warmup_cycle                 0                       # Cycle when the warmup percentage was hit.
system.cpu.icache.tags.occ_blocks::cpu.inst  1712.059457                       # Average occupied blocks per requestor
system.cpu.icache.tags.occ_percent::cpu.inst     0.835967                       # Average percentage of cache occupancy
system.cpu.icache.tags.occ_percent::total     0.835967                       # Average percentage of cache occupancy
system.cpu.icache.tags.occ_task_id_blocks::1024         1751                       # Occupied blocks per task id
system.cpu.icache.tags.age_task_id_blocks_1024::0           57                       # Occupied blocks per task id
system.cpu.icache.tags.age_task_id_blocks_1024::1           92                       # Occupied blocks per task id
system.cpu.icache.tags.age_task_id_blocks_1024::4         1602                       # Occupied blocks per task id
system.cpu.icache.tags.occ_task_id_percent::1024     0.854980                       # Percentage of cache occupancy per task id
system.cpu.icache.tags.tag_accesses         580287757                       # Number of tag accesses
system.cpu.icache.tags.data_accesses        580287757                       # Number of data accesses
system.cpu.icache.ReadReq_hits::cpu.inst    290105857                       # number of ReadReq hits
system.cpu.icache.ReadReq_hits::total       290105857                       # number of ReadReq hits
system.cpu.icache.demand_hits::cpu.inst     290105857                       # number of demand (read+write) hits
system.cpu.icache.demand_hits::total        290105857                       # number of demand (read+write) hits
system.cpu.icache.overall_hits::cpu.inst    290105857                       # number of overall hits
system.cpu.icache.overall_hits::total       290105857                       # number of overall hits
system.cpu.icache.ReadReq_misses::cpu.inst        25348                       # number of ReadReq misses
system.cpu.icache.ReadReq_misses::total         25348                       # number of ReadReq misses
system.cpu.icache.demand_misses::cpu.inst        25348                       # number of demand (read+write) misses
system.cpu.icache.demand_misses::total          25348                       # number of demand (read+write) misses
system.cpu.icache.overall_misses::cpu.inst        25348                       # number of overall misses
system.cpu.icache.overall_misses::total         25348                       # number of overall misses
system.cpu.icache.ReadReq_miss_latency::cpu.inst    499853745                       # number of ReadReq miss cycles
system.cpu.icache.ReadReq_miss_latency::total    499853745                       # number of ReadReq miss cycles
system.cpu.icache.demand_miss_latency::cpu.inst    499853745                       # number of demand (read+write) miss cycles
system.cpu.icache.demand_miss_latency::total    499853745                       # number of demand (read+write) miss cycles
system.cpu.icache.overall_miss_latency::cpu.inst    499853745                       # number of overall miss cycles
system.cpu.icache.overall_miss_latency::total    499853745                       # number of overall miss cycles
system.cpu.icache.ReadReq_accesses::cpu.inst    290131205                       # number of ReadReq accesses(hits+misses)
system.cpu.icache.ReadReq_accesses::total    290131205                       # number of ReadReq accesses(hits+misses)
system.cpu.icache.demand_accesses::cpu.inst    290131205                       # number of demand (read+write) accesses
system.cpu.icache.demand_accesses::total    290131205                       # number of demand (read+write) accesses
system.cpu.icache.overall_accesses::cpu.inst    290131205                       # number of overall (read+write) accesses
system.cpu.icache.overall_accesses::total    290131205                       # number of overall (read+write) accesses
system.cpu.icache.ReadReq_miss_rate::cpu.inst     0.000087                       # miss rate for ReadReq accesses
system.cpu.icache.ReadReq_miss_rate::total     0.000087                       # miss rate for ReadReq accesses
system.cpu.icache.demand_miss_rate::cpu.inst     0.000087                       # miss rate for demand accesses
system.cpu.icache.demand_miss_rate::total     0.000087                       # miss rate for demand accesses
system.cpu.icache.overall_miss_rate::cpu.inst     0.000087                       # miss rate for overall accesses
system.cpu.icache.overall_miss_rate::total     0.000087                       # miss rate for overall accesses
system.cpu.icache.ReadReq_avg_miss_latency::cpu.inst 19719.652241                       # average ReadReq miss latency
system.cpu.icache.ReadReq_avg_miss_latency::total 19719.652241                       # average ReadReq miss latency
system.cpu.icache.demand_avg_miss_latency::cpu.inst 19719.652241                       # average overall miss latency
system.cpu.icache.demand_avg_miss_latency::total 19719.652241                       # average overall miss latency
system.cpu.icache.overall_avg_miss_latency::cpu.inst 19719.652241                       # average overall miss latency
system.cpu.icache.overall_avg_miss_latency::total 19719.652241                       # average overall miss latency
system.cpu.icache.blocked_cycles::no_mshrs            0                       # number of cycles access was blocked
system.cpu.icache.blocked_cycles::no_targets            0                       # number of cycles access was blocked
system.cpu.icache.blocked::no_mshrs                 0                       # number of cycles access was blocked
system.cpu.icache.blocked::no_targets               0                       # number of cycles access was blocked
system.cpu.icache.avg_blocked_cycles::no_mshrs          nan                       # average number of cycles each access was blocked
system.cpu.icache.avg_blocked_cycles::no_targets          nan                       # average number of cycles each access was blocked
system.cpu.icache.fast_writes                       0                       # number of fast writes performed
system.cpu.icache.cache_copies                      0                       # number of cache copies performed
system.cpu.icache.ReadReq_mshr_misses::cpu.inst        25348                       # number of ReadReq MSHR misses
system.cpu.icache.ReadReq_mshr_misses::total        25348                       # number of ReadReq MSHR misses
system.cpu.icache.demand_mshr_misses::cpu.inst        25348                       # number of demand (read+write) MSHR misses
system.cpu.icache.demand_mshr_misses::total        25348                       # number of demand (read+write) MSHR misses
system.cpu.icache.overall_mshr_misses::cpu.inst        25348                       # number of overall MSHR misses
system.cpu.icache.overall_mshr_misses::total        25348                       # number of overall MSHR misses
system.cpu.icache.ReadReq_mshr_miss_latency::cpu.inst    460727755                       # number of ReadReq MSHR miss cycles
system.cpu.icache.ReadReq_mshr_miss_latency::total    460727755                       # number of ReadReq MSHR miss cycles
system.cpu.icache.demand_mshr_miss_latency::cpu.inst    460727755                       # number of demand (read+write) MSHR miss cycles
system.cpu.icache.demand_mshr_miss_latency::total    460727755                       # number of demand (read+write) MSHR miss cycles
system.cpu.icache.overall_mshr_miss_latency::cpu.inst    460727755                       # number of overall MSHR miss cycles
system.cpu.icache.overall_mshr_miss_latency::total    460727755                       # number of overall MSHR miss cycles
system.cpu.icache.ReadReq_mshr_miss_rate::cpu.inst     0.000087                       # mshr miss rate for ReadReq accesses
system.cpu.icache.ReadReq_mshr_miss_rate::total     0.000087                       # mshr miss rate for ReadReq accesses
system.cpu.icache.demand_mshr_miss_rate::cpu.inst     0.000087                       # mshr miss rate for demand accesses
system.cpu.icache.demand_mshr_miss_rate::total     0.000087                       # mshr miss rate for demand accesses
system.cpu.icache.overall_mshr_miss_rate::cpu.inst     0.000087                       # mshr miss rate for overall accesses
system.cpu.icache.overall_mshr_miss_rate::total     0.000087                       # mshr miss rate for overall accesses
system.cpu.icache.ReadReq_avg_mshr_miss_latency::cpu.inst 18176.098903                       # average ReadReq mshr miss latency
system.cpu.icache.ReadReq_avg_mshr_miss_latency::total 18176.098903                       # average ReadReq mshr miss latency
system.cpu.icache.demand_avg_mshr_miss_latency::cpu.inst 18176.098903                       # average overall mshr miss latency
system.cpu.icache.demand_avg_mshr_miss_latency::total 18176.098903                       # average overall mshr miss latency
system.cpu.icache.overall_avg_mshr_miss_latency::cpu.inst 18176.098903                       # average overall mshr miss latency
system.cpu.icache.overall_avg_mshr_miss_latency::total 18176.098903                       # average overall mshr miss latency
system.cpu.icache.no_allocate_misses                0                       # Number of misses that were no-allocate
system.cpu.l2cache.tags.replacements           257750                       # number of replacements
system.cpu.l2cache.tags.tagsinuse        32572.840203                       # Cycle average of tags in use
system.cpu.l2cache.tags.total_refs             539129                       # Total number of references to valid blocks.
system.cpu.l2cache.tags.sampled_refs           290494                       # Sample count of references to valid blocks.
system.cpu.l2cache.tags.avg_refs             1.855904                       # Average number of references to valid blocks.
system.cpu.l2cache.tags.warmup_cycle                0                       # Cycle when the warmup percentage was hit.
system.cpu.l2cache.tags.occ_blocks::writebacks  2880.993603                       # Average occupied blocks per requestor
system.cpu.l2cache.tags.occ_blocks::cpu.inst    89.456847                       # Average occupied blocks per requestor
system.cpu.l2cache.tags.occ_blocks::cpu.data 29602.389753                       # Average occupied blocks per requestor
system.cpu.l2cache.tags.occ_percent::writebacks     0.087921                       # Average percentage of cache occupancy
system.cpu.l2cache.tags.occ_percent::cpu.inst     0.002730                       # Average percentage of cache occupancy
system.cpu.l2cache.tags.occ_percent::cpu.data     0.903393                       # Average percentage of cache occupancy
system.cpu.l2cache.tags.occ_percent::total     0.994044                       # Average percentage of cache occupancy
system.cpu.l2cache.tags.occ_task_id_blocks::1024        32744                       # Occupied blocks per task id
system.cpu.l2cache.tags.age_task_id_blocks_1024::0           81                       # Occupied blocks per task id
system.cpu.l2cache.tags.age_task_id_blocks_1024::1          149                       # Occupied blocks per task id
system.cpu.l2cache.tags.age_task_id_blocks_1024::2          288                       # Occupied blocks per task id
system.cpu.l2cache.tags.age_task_id_blocks_1024::3         2810                       # Occupied blocks per task id
system.cpu.l2cache.tags.age_task_id_blocks_1024::4        29416                       # Occupied blocks per task id
system.cpu.l2cache.tags.occ_task_id_percent::1024     0.999268                       # Percentage of cache occupancy per task id
system.cpu.l2cache.tags.tag_accesses          7552928                       # Number of tag accesses
system.cpu.l2cache.tags.data_accesses         7552928                       # Number of data accesses
system.cpu.l2cache.ReadReq_hits::cpu.inst        22767                       # number of ReadReq hits
system.cpu.l2cache.ReadReq_hits::cpu.data       491158                       # number of ReadReq hits
system.cpu.l2cache.ReadReq_hits::total         513925                       # number of ReadReq hits
system.cpu.l2cache.Writeback_hits::writebacks        91420                       # number of Writeback hits
system.cpu.l2cache.Writeback_hits::total        91420                       # number of Writeback hits
system.cpu.l2cache.ReadExReq_hits::cpu.data         3231                       # number of ReadExReq hits
system.cpu.l2cache.ReadExReq_hits::total         3231                       # number of ReadExReq hits
system.cpu.l2cache.demand_hits::cpu.inst        22767                       # number of demand (read+write) hits
system.cpu.l2cache.demand_hits::cpu.data       494389                       # number of demand (read+write) hits
system.cpu.l2cache.demand_hits::total          517156                       # number of demand (read+write) hits
system.cpu.l2cache.overall_hits::cpu.inst        22767                       # number of overall hits
system.cpu.l2cache.overall_hits::cpu.data       494389                       # number of overall hits
system.cpu.l2cache.overall_hits::total         517156                       # number of overall hits
system.cpu.l2cache.ReadReq_misses::cpu.inst         2581                       # number of ReadReq misses
system.cpu.l2cache.ReadReq_misses::cpu.data       221891                       # number of ReadReq misses
system.cpu.l2cache.ReadReq_misses::total       224472                       # number of ReadReq misses
system.cpu.l2cache.ReadExReq_misses::cpu.data        66091                       # number of ReadExReq misses
system.cpu.l2cache.ReadExReq_misses::total        66091                       # number of ReadExReq misses
system.cpu.l2cache.demand_misses::cpu.inst         2581                       # number of demand (read+write) misses
system.cpu.l2cache.demand_misses::cpu.data       287982                       # number of demand (read+write) misses
system.cpu.l2cache.demand_misses::total        290563                       # number of demand (read+write) misses
system.cpu.l2cache.overall_misses::cpu.inst         2581                       # number of overall misses
system.cpu.l2cache.overall_misses::cpu.data       287982                       # number of overall misses
system.cpu.l2cache.overall_misses::total       290563                       # number of overall misses
system.cpu.l2cache.ReadReq_miss_latency::cpu.inst    196326750                       # number of ReadReq miss cycles
system.cpu.l2cache.ReadReq_miss_latency::cpu.data  17814641750                       # number of ReadReq miss cycles
system.cpu.l2cache.ReadReq_miss_latency::total  18010968500                       # number of ReadReq miss cycles
system.cpu.l2cache.ReadExReq_miss_latency::cpu.data   4948515750                       # number of ReadExReq miss cycles
system.cpu.l2cache.ReadExReq_miss_latency::total   4948515750                       # number of ReadExReq miss cycles
system.cpu.l2cache.demand_miss_latency::cpu.inst    196326750                       # number of demand (read+write) miss cycles
system.cpu.l2cache.demand_miss_latency::cpu.data  22763157500                       # number of demand (read+write) miss cycles
system.cpu.l2cache.demand_miss_latency::total  22959484250                       # number of demand (read+write) miss cycles
system.cpu.l2cache.overall_miss_latency::cpu.inst    196326750                       # number of overall miss cycles
system.cpu.l2cache.overall_miss_latency::cpu.data  22763157500                       # number of overall miss cycles
system.cpu.l2cache.overall_miss_latency::total  22959484250                       # number of overall miss cycles
system.cpu.l2cache.ReadReq_accesses::cpu.inst        25348                       # number of ReadReq accesses(hits+misses)
system.cpu.l2cache.ReadReq_accesses::cpu.data       713049                       # number of ReadReq accesses(hits+misses)
system.cpu.l2cache.ReadReq_accesses::total       738397                       # number of ReadReq accesses(hits+misses)
system.cpu.l2cache.Writeback_accesses::writebacks        91420                       # number of Writeback accesses(hits+misses)
system.cpu.l2cache.Writeback_accesses::total        91420                       # number of Writeback accesses(hits+misses)
system.cpu.l2cache.ReadExReq_accesses::cpu.data        69322                       # number of ReadExReq accesses(hits+misses)
system.cpu.l2cache.ReadExReq_accesses::total        69322                       # number of ReadExReq accesses(hits+misses)
system.cpu.l2cache.demand_accesses::cpu.inst        25348                       # number of demand (read+write) accesses
system.cpu.l2cache.demand_accesses::cpu.data       782371                       # number of demand (read+write) accesses
system.cpu.l2cache.demand_accesses::total       807719                       # number of demand (read+write) accesses
system.cpu.l2cache.overall_accesses::cpu.inst        25348                       # number of overall (read+write) accesses
system.cpu.l2cache.overall_accesses::cpu.data       782371                       # number of overall (read+write) accesses
system.cpu.l2cache.overall_accesses::total       807719                       # number of overall (read+write) accesses
system.cpu.l2cache.ReadReq_miss_rate::cpu.inst     0.101823                       # miss rate for ReadReq accesses
system.cpu.l2cache.ReadReq_miss_rate::cpu.data     0.311186                       # miss rate for ReadReq accesses
system.cpu.l2cache.ReadReq_miss_rate::total     0.303999                       # miss rate for ReadReq accesses
system.cpu.l2cache.ReadExReq_miss_rate::cpu.data     0.953391                       # miss rate for ReadExReq accesses
system.cpu.l2cache.ReadExReq_miss_rate::total     0.953391                       # miss rate for ReadExReq accesses
system.cpu.l2cache.demand_miss_rate::cpu.inst     0.101823                       # miss rate for demand accesses
system.cpu.l2cache.demand_miss_rate::cpu.data     0.368089                       # miss rate for demand accesses
system.cpu.l2cache.demand_miss_rate::total     0.359733                       # miss rate for demand accesses
system.cpu.l2cache.overall_miss_rate::cpu.inst     0.101823                       # miss rate for overall accesses
system.cpu.l2cache.overall_miss_rate::cpu.data     0.368089                       # miss rate for overall accesses
system.cpu.l2cache.overall_miss_rate::total     0.359733                       # miss rate for overall accesses
system.cpu.l2cache.ReadReq_avg_miss_latency::cpu.inst 76066.156528                       # average ReadReq miss latency
system.cpu.l2cache.ReadReq_avg_miss_latency::cpu.data 80285.553492                       # average ReadReq miss latency
system.cpu.l2cache.ReadReq_avg_miss_latency::total 80237.038473                       # average ReadReq miss latency
system.cpu.l2cache.ReadExReq_avg_miss_latency::cpu.data 74874.275620                       # average ReadExReq miss latency
system.cpu.l2cache.ReadExReq_avg_miss_latency::total 74874.275620                       # average ReadExReq miss latency
system.cpu.l2cache.demand_avg_miss_latency::cpu.inst 76066.156528                       # average overall miss latency
system.cpu.l2cache.demand_avg_miss_latency::cpu.data 79043.681550                       # average overall miss latency
system.cpu.l2cache.demand_avg_miss_latency::total 79017.232924                       # average overall miss latency
system.cpu.l2cache.overall_avg_miss_latency::cpu.inst 76066.156528                       # average overall miss latency
system.cpu.l2cache.overall_avg_miss_latency::cpu.data 79043.681550                       # average overall miss latency
system.cpu.l2cache.overall_avg_miss_latency::total 79017.232924                       # average overall miss latency
system.cpu.l2cache.blocked_cycles::no_mshrs            0                       # number of cycles access was blocked
system.cpu.l2cache.blocked_cycles::no_targets            0                       # number of cycles access was blocked
system.cpu.l2cache.blocked::no_mshrs                0                       # number of cycles access was blocked
system.cpu.l2cache.blocked::no_targets              0                       # number of cycles access was blocked
system.cpu.l2cache.avg_blocked_cycles::no_mshrs          nan                       # average number of cycles each access was blocked
system.cpu.l2cache.avg_blocked_cycles::no_targets          nan                       # average number of cycles each access was blocked
system.cpu.l2cache.fast_writes                      0                       # number of fast writes performed
system.cpu.l2cache.cache_copies                     0                       # number of cache copies performed
system.cpu.l2cache.writebacks::writebacks        66098                       # number of writebacks
system.cpu.l2cache.writebacks::total            66098                       # number of writebacks
system.cpu.l2cache.ReadReq_mshr_hits::cpu.inst            5                       # number of ReadReq MSHR hits
system.cpu.l2cache.ReadReq_mshr_hits::cpu.data           27                       # number of ReadReq MSHR hits
system.cpu.l2cache.ReadReq_mshr_hits::total           32                       # number of ReadReq MSHR hits
system.cpu.l2cache.demand_mshr_hits::cpu.inst            5                       # number of demand (read+write) MSHR hits
system.cpu.l2cache.demand_mshr_hits::cpu.data           27                       # number of demand (read+write) MSHR hits
system.cpu.l2cache.demand_mshr_hits::total           32                       # number of demand (read+write) MSHR hits
system.cpu.l2cache.overall_mshr_hits::cpu.inst            5                       # number of overall MSHR hits
system.cpu.l2cache.overall_mshr_hits::cpu.data           27                       # number of overall MSHR hits
system.cpu.l2cache.overall_mshr_hits::total           32                       # number of overall MSHR hits
system.cpu.l2cache.ReadReq_mshr_misses::cpu.inst         2576                       # number of ReadReq MSHR misses
system.cpu.l2cache.ReadReq_mshr_misses::cpu.data       221864                       # number of ReadReq MSHR misses
system.cpu.l2cache.ReadReq_mshr_misses::total       224440                       # number of ReadReq MSHR misses
system.cpu.l2cache.ReadExReq_mshr_misses::cpu.data        66091                       # number of ReadExReq MSHR misses
system.cpu.l2cache.ReadExReq_mshr_misses::total        66091                       # number of ReadExReq MSHR misses
system.cpu.l2cache.demand_mshr_misses::cpu.inst         2576                       # number of demand (read+write) MSHR misses
system.cpu.l2cache.demand_mshr_misses::cpu.data       287955                       # number of demand (read+write) MSHR misses
system.cpu.l2cache.demand_mshr_misses::total       290531                       # number of demand (read+write) MSHR misses
system.cpu.l2cache.overall_mshr_misses::cpu.inst         2576                       # number of overall MSHR misses
system.cpu.l2cache.overall_mshr_misses::cpu.data       287955                       # number of overall MSHR misses
system.cpu.l2cache.overall_mshr_misses::total       290531                       # number of overall MSHR misses
system.cpu.l2cache.ReadReq_mshr_miss_latency::cpu.inst    163738000                       # number of ReadReq MSHR miss cycles
system.cpu.l2cache.ReadReq_mshr_miss_latency::cpu.data  15037461500                       # number of ReadReq MSHR miss cycles
system.cpu.l2cache.ReadReq_mshr_miss_latency::total  15201199500                       # number of ReadReq MSHR miss cycles
system.cpu.l2cache.ReadExReq_mshr_miss_latency::cpu.data   4120172250                       # number of ReadExReq MSHR miss cycles
system.cpu.l2cache.ReadExReq_mshr_miss_latency::total   4120172250                       # number of ReadExReq MSHR miss cycles
system.cpu.l2cache.demand_mshr_miss_latency::cpu.inst    163738000                       # number of demand (read+write) MSHR miss cycles
system.cpu.l2cache.demand_mshr_miss_latency::cpu.data  19157633750                       # number of demand (read+write) MSHR miss cycles
system.cpu.l2cache.demand_mshr_miss_latency::total  19321371750                       # number of demand (read+write) MSHR miss cycles
system.cpu.l2cache.overall_mshr_miss_latency::cpu.inst    163738000                       # number of overall MSHR miss cycles
system.cpu.l2cache.overall_mshr_miss_latency::cpu.data  19157633750                       # number of overall MSHR miss cycles
system.cpu.l2cache.overall_mshr_miss_latency::total  19321371750                       # number of overall MSHR miss cycles
system.cpu.l2cache.ReadReq_mshr_miss_rate::cpu.inst     0.101625                       # mshr miss rate for ReadReq accesses
system.cpu.l2cache.ReadReq_mshr_miss_rate::cpu.data     0.311148                       # mshr miss rate for ReadReq accesses
system.cpu.l2cache.ReadReq_mshr_miss_rate::total     0.303956                       # mshr miss rate for ReadReq accesses
system.cpu.l2cache.ReadExReq_mshr_miss_rate::cpu.data     0.953391                       # mshr miss rate for ReadExReq accesses
system.cpu.l2cache.ReadExReq_mshr_miss_rate::total     0.953391                       # mshr miss rate for ReadExReq accesses
system.cpu.l2cache.demand_mshr_miss_rate::cpu.inst     0.101625                       # mshr miss rate for demand accesses
system.cpu.l2cache.demand_mshr_miss_rate::cpu.data     0.368054                       # mshr miss rate for demand accesses
system.cpu.l2cache.demand_mshr_miss_rate::total     0.359693                       # mshr miss rate for demand accesses
system.cpu.l2cache.overall_mshr_miss_rate::cpu.inst     0.101625                       # mshr miss rate for overall accesses
system.cpu.l2cache.overall_mshr_miss_rate::cpu.data     0.368054                       # mshr miss rate for overall accesses
system.cpu.l2cache.overall_mshr_miss_rate::total     0.359693                       # mshr miss rate for overall accesses
system.cpu.l2cache.ReadReq_avg_mshr_miss_latency::cpu.inst 63562.888199                       # average ReadReq mshr miss latency
system.cpu.l2cache.ReadReq_avg_mshr_miss_latency::cpu.data 67777.834619                       # average ReadReq mshr miss latency
system.cpu.l2cache.ReadReq_avg_mshr_miss_latency::total 67729.457762                       # average ReadReq mshr miss latency
system.cpu.l2cache.ReadExReq_avg_mshr_miss_latency::cpu.data 62340.897399                       # average ReadExReq mshr miss latency
system.cpu.l2cache.ReadExReq_avg_mshr_miss_latency::total 62340.897399                       # average ReadExReq mshr miss latency
system.cpu.l2cache.demand_avg_mshr_miss_latency::cpu.inst 63562.888199                       # average overall mshr miss latency
system.cpu.l2cache.demand_avg_mshr_miss_latency::cpu.data 66529.956938                       # average overall mshr miss latency
system.cpu.l2cache.demand_avg_mshr_miss_latency::total 66503.649352                       # average overall mshr miss latency
system.cpu.l2cache.overall_avg_mshr_miss_latency::cpu.inst 63562.888199                       # average overall mshr miss latency
system.cpu.l2cache.overall_avg_mshr_miss_latency::cpu.data 66529.956938                       # average overall mshr miss latency
system.cpu.l2cache.overall_avg_mshr_miss_latency::total 66503.649352                       # average overall mshr miss latency
system.cpu.l2cache.no_allocate_misses               0                       # Number of misses that were no-allocate
system.cpu.toL2Bus.trans_dist::ReadReq         738397                       # Transaction distribution
system.cpu.toL2Bus.trans_dist::ReadResp        738396                       # Transaction distribution
system.cpu.toL2Bus.trans_dist::Writeback        91420                       # Transaction distribution
system.cpu.toL2Bus.trans_dist::ReadExReq        69322                       # Transaction distribution
system.cpu.toL2Bus.trans_dist::ReadExResp        69322                       # Transaction distribution
system.cpu.toL2Bus.pkt_count_system.cpu.icache.mem_side::system.cpu.l2cache.cpu_side        50695                       # Packet count per connected master and slave (bytes)
system.cpu.toL2Bus.pkt_count_system.cpu.dcache.mem_side::system.cpu.l2cache.cpu_side      1656162                       # Packet count per connected master and slave (bytes)
system.cpu.toL2Bus.pkt_count::total           1706857                       # Packet count per connected master and slave (bytes)
system.cpu.toL2Bus.pkt_size_system.cpu.icache.mem_side::system.cpu.l2cache.cpu_side      1622208                       # Cumulative packet size per connected master and slave (bytes)
system.cpu.toL2Bus.pkt_size_system.cpu.dcache.mem_side::system.cpu.l2cache.cpu_side     55922624                       # Cumulative packet size per connected master and slave (bytes)
system.cpu.toL2Bus.pkt_size::total           57544832                       # Cumulative packet size per connected master and slave (bytes)
system.cpu.toL2Bus.snoops                           0                       # Total snoops (count)
system.cpu.toL2Bus.snoop_fanout::samples       899139                       # Request fanout histogram
system.cpu.toL2Bus.snoop_fanout::mean               1                       # Request fanout histogram
system.cpu.toL2Bus.snoop_fanout::stdev              0                       # Request fanout histogram
system.cpu.toL2Bus.snoop_fanout::underflows            0      0.00%      0.00% # Request fanout histogram
system.cpu.toL2Bus.snoop_fanout::0                  0      0.00%      0.00% # Request fanout histogram
system.cpu.toL2Bus.snoop_fanout::1             899139    100.00%    100.00% # Request fanout histogram
system.cpu.toL2Bus.snoop_fanout::2                  0      0.00%    100.00% # Request fanout histogram
system.cpu.toL2Bus.snoop_fanout::overflows            0      0.00%    100.00% # Request fanout histogram
system.cpu.toL2Bus.snoop_fanout::min_value            1                       # Request fanout histogram
system.cpu.toL2Bus.snoop_fanout::max_value            1                       # Request fanout histogram
system.cpu.toL2Bus.snoop_fanout::total         899139                       # Request fanout histogram
system.cpu.toL2Bus.reqLayer0.occupancy      540989500                       # Layer occupancy (ticks)
system.cpu.toL2Bus.reqLayer0.utilization          0.1                       # Layer utilization (%)
system.cpu.toL2Bus.respLayer0.occupancy      38573245                       # Layer occupancy (ticks)
system.cpu.toL2Bus.respLayer0.utilization          0.0                       # Layer utilization (%)
system.cpu.toL2Bus.respLayer1.occupancy    1224491973                       # Layer occupancy (ticks)
system.cpu.toL2Bus.respLayer1.utilization          0.2                       # Layer utilization (%)
system.membus.trans_dist::ReadReq              224439                       # Transaction distribution
system.membus.trans_dist::ReadResp             224439                       # Transaction distribution
system.membus.trans_dist::Writeback             66098                       # Transaction distribution
system.membus.trans_dist::ReadExReq             66091                       # Transaction distribution
system.membus.trans_dist::ReadExResp            66091                       # Transaction distribution
system.membus.pkt_count_system.cpu.l2cache.mem_side::system.physmem.port       647158                       # Packet count per connected master and slave (bytes)
system.membus.pkt_count::total                 647158                       # Packet count per connected master and slave (bytes)
system.membus.pkt_size_system.cpu.l2cache.mem_side::system.physmem.port     22824192                       # Cumulative packet size per connected master and slave (bytes)
system.membus.pkt_size::total                22824192                       # Cumulative packet size per connected master and slave (bytes)
system.membus.snoops                                0                       # Total snoops (count)
system.membus.snoop_fanout::samples            356628                       # Request fanout histogram
system.membus.snoop_fanout::mean                    0                       # Request fanout histogram
system.membus.snoop_fanout::stdev                   0                       # Request fanout histogram
system.membus.snoop_fanout::underflows              0      0.00%      0.00% # Request fanout histogram
system.membus.snoop_fanout::0                  356628    100.00%    100.00% # Request fanout histogram
system.membus.snoop_fanout::1                       0      0.00%    100.00% # Request fanout histogram
system.membus.snoop_fanout::overflows               0      0.00%    100.00% # Request fanout histogram
system.membus.snoop_fanout::min_value               0                       # Request fanout histogram
system.membus.snoop_fanout::max_value               0                       # Request fanout histogram
system.membus.snoop_fanout::total              356628                       # Request fanout histogram
system.membus.reqLayer0.occupancy           731800000                       # Layer occupancy (ticks)
system.membus.reqLayer0.utilization               0.1                       # Layer utilization (%)
system.membus.respLayer1.occupancy         1550863750                       # Layer occupancy (ticks)
system.membus.respLayer1.utilization              0.3                       # Layer utilization (%)

---------- End Simulation Statistics   ----------
