gem5 Simulator System.  http://gem5.org
gem5 is copyrighted software; use the --copyright option for details.

gem5 compiled Dec  4 2015 11:13:17
gem5 started Dec  4 2015 11:31:31
gem5 executing on e104799-lin, pid 30776
command line: build/ARM/gem5.opt -d build/ARM/tests/opt/long/fs/10.linux-boot/arm/linux/realview64-switcheroo-timing -re /work/gem5/outgoing/gem5_2/tests/run.py build/ARM/tests/opt/long/fs/10.linux-boot/arm/linux/realview64-switcheroo-timing

Selected 64-bit ARM architecture, updating default disk image...
Global frequency set at 1000000000000 ticks per second
