Redirecting stdout to build/ALPHA/tests/opt/quick/fs/10.linux-boot/alpha/linux/tsunami-simple-atomic-dual/simout
Redirecting stderr to build/ALPHA/tests/opt/quick/fs/10.linux-boot/alpha/linux/tsunami-simple-atomic-dual/simerr
gem5 Simulator System.  http://gem5.org
gem5 is copyrighted software; use the --copyright option for details.

gem5 compiled Jan 23 2013 13:29:14
gem5 started Jan 23 2013 14:01:11
gem5 executing on ribera.cs.wisc.edu
command line: build/ALPHA/gem5.opt -d build/ALPHA/tests/opt/quick/fs/10.linux-boot/alpha/linux/tsunami-simple-atomic-dual -re tests/run.py build/ALPHA/tests/opt/quick/fs/10.linux-boot/alpha/linux/tsunami-simple-atomic-dual
Global frequency set at 1000000000000 ticks per second
info: kernel located at: /scratch/nilay/GEM5/system/binaries/vmlinux
      0: system.tsunami.io.rtc: Real-time clock set to Thu Jan  1 00:00:00 2009
info: Entering event queue @ 0.  Starting simulation...
info: Launching CPU 1 @ 97861500
Exiting @ tick 1870325497500 because m5_exit instruction encountered
