McPAT (version 0.8 of Aug, 2010) is computing the target processor...
 

McPAT (version 0.8 of Aug, 2010) results  (current print level is 5)
*****************************************************************************************
  Technology 40 nm
  Using Long Channel Devices When Appropriate
  Interconnect metal projection = conservative interconnect technology projection
  Target Clock Rate (MHz) 1000

*****************************************************************************************
  System:
    Area = 91.3048 mm^2
    Peak Dynamic Power = 11.7471 W
    Subthreshold Leakage Power = 16.8605 W
    Gate Leakage Power = 1.33544 W
    Runtime Dynamic Power = 7.29163 W
    Runtime Dynamic Energy = 15.9657 J
    Total Runtime Energy = 55.8075 J

      Core 0:
        Area = 5.11302 mm^2
        Peak Dynamic Power = 0.725551 W
        Subthreshold Leakage Power = 0.910011 W
        Gate Leakage Power = 0.0793208 W
        Runtime Dynamic Power = 0.444504 W
        Runtime Dynamic Energy = 0.973283 J
        Total Runtime Energy = 3.13952 J

          Instruction Fetch Unit:
            Area = 1.07061 mm^2
            Peak Dynamic Power = 0.069507 W
            Subthreshold Leakage Power = 0.0768543 W
            Gate Leakage Power = 0.00183262 W
            Runtime Dynamic Power = 0.0764119 W
            Runtime Dynamic Energy = 0.167311 J
            Total Runtime Energy = 0.339604 J

              Instruction Cache:
                Area = 1.06646 mm^2
                Peak Dynamic Power = 0.0345629 W
                Subthreshold Leakage Power = 0.0723979 W
                Gate Leakage Power = 0.00168831 W
                Runtime Dynamic Power = 0.0445876 W
                Runtime Dynamic Energy = 0.0976289 J
                Total Runtime Energy = 0.259848 J

                  Data and Tag Arrays:
                    Area = 0.259164 mm^2
                    Peak Dynamic Power = 0 W
                    Subthreshold Leakage Power = 0.066312 W
                    Gate Leakage Power = 0.00138196 W
                    Runtime Dynamic Power = 0.0445415 W
                    Runtime Dynamic Energy = 0.097528 J
                    Total Runtime Energy = 0.24575 J

                  Miss Buffer:
                    Area = 0.315209 mm^2
                    Peak Dynamic Power = 0.0124784 W
                    Subthreshold Leakage Power = 0.00218421 W
                    Gate Leakage Power = 0.000109941 W
                    Runtime Dynamic Power = 1.67306e-05 W
                    Runtime Dynamic Energy = 3.66332e-05 J
                    Total Runtime Energy = 0.0050599 J

                  Fill Buffer:
                    Area = 0.246043 mm^2
                    Peak Dynamic Power = 0.0110423 W
                    Subthreshold Leakage Power = 0.00195087 W
                    Gate Leakage Power = 9.82028e-05 W
                    Runtime Dynamic Power = 1.46745e-05 W
                    Runtime Dynamic Energy = 3.21313e-05 J
                    Total Runtime Energy = 0.00451877 J

                  Prefetch Buffer:
                    Area = 0.246043 mm^2
                    Peak Dynamic Power = 0.0110423 W
                    Subthreshold Leakage Power = 0.00195087 W
                    Gate Leakage Power = 9.82028e-05 W
                    Runtime Dynamic Power = 1.46745e-05 W
                    Runtime Dynamic Energy = 3.21313e-05 J
                    Total Runtime Energy = 0.00451877 J

              Instruction Buffer:
                Area = 0.00177465 mm^2
                Peak Dynamic Power = 0.00177346 W
                Subthreshold Leakage Power = 0.000334365 W
                Gate Leakage Power = 1.02451e-05 W
                Runtime Dynamic Power = 0.00161512 W
                Runtime Dynamic Energy = 0.00353647 J
                Total Runtime Energy = 0.00429102 J

              Instruction Opcode Decoder:
                Area = 0.000733115 mm^2
                Peak Dynamic Power = 0.0110556 W
                Subthreshold Leakage Power = 0.00127003 W
                Gate Leakage Power = 4.16647e-05 W
                Runtime Dynamic Power = 0.0100685 W
                Runtime Dynamic Energy = 0.022046 J
                Total Runtime Energy = 0.0249181 J

              Instruction Operand Decoder:
                Area = 0.00018867 mm^2
                Peak Dynamic Power = 0.0110476 W
                Subthreshold Leakage Power = 0.00032028 W
                Gate Leakage Power = 1.08411e-05 W
                Runtime Dynamic Power = 0.0100612 W
                Runtime Dynamic Energy = 0.02203 J
                Total Runtime Energy = 0.0227551 J

              Instruction Microcode Decoder:
                Area = 0.00144948 mm^2
                Peak Dynamic Power = 0.0110675 W
                Subthreshold Leakage Power = 0.00253168 W
                Gate Leakage Power = 8.15593e-05 W
                Runtime Dynamic Power = 0.0100794 W
                Runtime Dynamic Energy = 0.0220697 J
                Total Runtime Energy = 0.0277917 J

          Load/Store Unit:
            Area = 1.11574 mm^2
            Peak Dynamic Power = 0.0490235 W
            Subthreshold Leakage Power = 0.076641 W
            Gate Leakage Power = 0.00186238 W
            Runtime Dynamic Power = 0.0271067 W
            Runtime Dynamic Energy = 0.0593528 J
            Total Runtime Energy = 0.231243 J

              Data Cache:
                Area = 1.06646 mm^2
                Peak Dynamic Power = 0.0345629 W
                Subthreshold Leakage Power = 0.0723979 W
                Gate Leakage Power = 0.00168831 W
                Runtime Dynamic Power = 0.0193938 W
                Runtime Dynamic Energy = 0.0424646 J
                Total Runtime Energy = 0.204683 J

                  Data and Tag Arrays:
                    Area = 0.259164 mm^2
                    Peak Dynamic Power = 0 W
                    Subthreshold Leakage Power = 0.066312 W
                    Gate Leakage Power = 0.00138196 W
                    Runtime Dynamic Power = 0.0192129 W
                    Runtime Dynamic Energy = 0.0420686 J
                    Total Runtime Energy = 0.190291 J

                  Miss Buffer:
                    Area = 0.315209 mm^2
                    Peak Dynamic Power = 0.0124784 W
                    Subthreshold Leakage Power = 0.00218421 W
                    Gate Leakage Power = 0.000109941 W
                    Runtime Dynamic Power = 6.72773e-05 W
                    Runtime Dynamic Energy = 0.00014731 J
                    Total Runtime Energy = 0.00517058 J

                  Fill Buffer:
                    Area = 0.246043 mm^2
                    Peak Dynamic Power = 0.0110423 W
                    Subthreshold Leakage Power = 0.00195087 W
                    Gate Leakage Power = 9.82028e-05 W
                    Runtime Dynamic Power = 5.90095e-05 W
                    Runtime Dynamic Energy = 0.000129207 J
                    Total Runtime Energy = 0.00461585 J

                  Prefetch Buffer:
                    Area = 0.246043 mm^2
                    Peak Dynamic Power = 0.0110423 W
                    Subthreshold Leakage Power = 0.00195087 W
                    Gate Leakage Power = 9.82028e-05 W
                    Runtime Dynamic Power = 5.45763e-05 W
                    Runtime Dynamic Energy = 0.0001195 J
                    Total Runtime Energy = 0.00460614 J

              Store Queue:
                Area = 0.0492795 mm^2
                Peak Dynamic Power = 0.0144605 W
                Subthreshold Leakage Power = 0.00424307 W
                Gate Leakage Power = 0.000174072 W
                Runtime Dynamic Power = 0.00771294 W
                Runtime Dynamic Energy = 0.0168882 J
                Total Runtime Energy = 0.02656 J

          Memory Management Unit:
            Area = 0.0640137 mm^2
            Peak Dynamic Power = 0.020655 W
            Subthreshold Leakage Power = 0.0107524 W
            Gate Leakage Power = 0.00041319 W
            Runtime Dynamic Power = 0.0083564 W
            Runtime Dynamic Energy = 0.0182971 J
            Total Runtime Energy = 0.0427453 J

              Instruction TLB:
                Area = 0.0196043 mm^2
                Peak Dynamic Power = 0.00880588 W
                Subthreshold Leakage Power = 0.00418736 W
                Gate Leakage Power = 0.000171372 W
                Runtime Dynamic Power = 0.00618292 W
                Runtime Dynamic Energy = 0.0135381 J
                Total Runtime Energy = 0.023082 J

              Data TLB:
                Area = 0.0444093 mm^2
                Peak Dynamic Power = 0.0118492 W
                Subthreshold Leakage Power = 0.00656505 W
                Gate Leakage Power = 0.000241817 W
                Runtime Dynamic Power = 0.00217348 W
                Runtime Dynamic Energy = 0.00475905 J
                Total Runtime Energy = 0.0196633 J

          Execution Unit:
            Area = 2.22898 mm^2
            Peak Dynamic Power = 0.586365 W
            Subthreshold Leakage Power = 0.497274 W
            Gate Leakage Power = 0.0497488 W
            Runtime Dynamic Power = 0.149307 W
            Runtime Dynamic Energy = 0.326921 J
            Total Runtime Energy = 1.52468 J

              Int Bypass Data:
                Area = 0.00171352 mm^2
                Peak Dynamic Power = 0 W
                Subthreshold Leakage Power = 0 W
                Gate Leakage Power = 0 W
                Runtime Dynamic Power = 8.03187e-10 W
                Runtime Dynamic Energy = 1.75865e-09 J
                Total Runtime Energy = 1.75865e-09 J

              Int Bypass Tag:
                Area = 0.00021419 mm^2
                Peak Dynamic Power = 0 W
                Subthreshold Leakage Power = 0 W
                Gate Leakage Power = 0 W
                Runtime Dynamic Power = 1.00398e-10 W
                Runtime Dynamic Energy = 2.19832e-10 J
                Total Runtime Energy = 2.19832e-10 J

              Mul Bypass Data:
                Area = 0.00383958 mm^2
                Peak Dynamic Power = 0 W
                Subthreshold Leakage Power = 0 W
                Gate Leakage Power = 0 W
                Runtime Dynamic Power = 2.57107e-10 W
                Runtime Dynamic Energy = 5.6296e-10 J
                Total Runtime Energy = 5.6296e-10 J

              Mul Bypass Tag:
                Area = 0.000319965 mm^2
                Peak Dynamic Power = 0 W
                Subthreshold Leakage Power = 0 W
                Gate Leakage Power = 0 W
                Runtime Dynamic Power = 2.14256e-11 W
                Runtime Dynamic Energy = 4.69133e-11 J
                Total Runtime Energy = 4.69133e-11 J

              FP Bypass Data:
                Area = 0.00547065 mm^2
                Peak Dynamic Power = 0 W
                Subthreshold Leakage Power = 0 W
                Gate Leakage Power = 0 W
                Runtime Dynamic Power = 7.32653e-10 W
                Runtime Dynamic Energy = 1.60421e-09 J
                Total Runtime Energy = 1.60421e-09 J

              FP Bypass Tag:
                Area = 0.00050165 mm^2
                Peak Dynamic Power = 0 W
                Subthreshold Leakage Power = 0 W
                Gate Leakage Power = 0 W
                Runtime Dynamic Power = 6.71832e-11 W
                Runtime Dynamic Energy = 1.47104e-10 J
                Total Runtime Energy = 1.47104e-10 J

              Register File Unit:
                Area = 0.0294128 mm^2
                Peak Dynamic Power = 0.0343622 W
                Subthreshold Leakage Power = 0.00191002 W
                Gate Leakage Power = 5.14853e-05 W
                Runtime Dynamic Power = 3.18495e-10 W
                Runtime Dynamic Energy = 6.97375e-10 J
                Total Runtime Energy = 0.00429491 J

                  Integer Register File:
                    Area = 0.0186223 mm^2
                    Peak Dynamic Power = 0.028914 W
                    Subthreshold Leakage Power = 0.000762251 W
                    Gate Leakage Power = 2.05735e-05 W
                    Runtime Dynamic Power = 2.51528e-10 W
                    Runtime Dynamic Energy = 5.50744e-10 J
                    Total Runtime Energy = 0.00171407 J

                  FP Register File:
                    Area = 0.0107906 mm^2
                    Peak Dynamic Power = 0.00544812 W
                    Subthreshold Leakage Power = 0.00114777 W
                    Gate Leakage Power = 3.09119e-05 W
                    Runtime Dynamic Power = 6.69672e-11 W
                    Runtime Dynamic Energy = 1.46631e-10 J
                    Total Runtime Energy = 0.00258085 J

              Integer ALU(s):
                Area = 0.138846 mm^2
                Peak Dynamic Power = 0.157715 W
                Subthreshold Leakage Power = 0.085206 W
                Gate Leakage Power = 0.00854828 W
                Runtime Dynamic Power = 0.0330724 W
                Runtime Dynamic Energy = 0.0724151 J
                Total Runtime Energy = 0.277699 J

              Floating Point Unit(s):
                Area = 1.8404 mm^2
                Peak Dynamic Power = 0.236573 W
                Subthreshold Leakage Power = 0.282349 W
                Gate Leakage Power = 0.0283266 W
                Runtime Dynamic Power = 0.116234 W
                Runtime Dynamic Energy = 0.254506 J
                Total Runtime Energy = 0.93476 J

              Multiply/Divide Unit(s):
                Area = 0.20827 mm^2
                Peak Dynamic Power = 0.157715 W
                Subthreshold Leakage Power = 0.127809 W
                Gate Leakage Power = 0.0128224 W
                Runtime Dynamic Power = 7.20294e-10 W
                Runtime Dynamic Energy = 1.57715e-09 J
                Total Runtime Energy = 0.307926 J

          Undifferentiated Core:
            Area = 0.528329 mm^2
            Peak Dynamic Power = 0 W
            Subthreshold Leakage Power = 0.16211 W
            Gate Leakage Power = 0.0162637 W
            Runtime Dynamic Power = 0 W
            Runtime Dynamic Energy = 0 J
            Total Runtime Energy = 0.390566 J

          Pipeline?:
            Area = 0.105346 mm^2
            Peak Dynamic Power = 0 W
            Subthreshold Leakage Power = 0.0863787 W
            Gate Leakage Power = 0.00920013 W
            Runtime Dynamic Power = 0.183322 W
            Runtime Dynamic Energy = 0.401401 J
            Total Runtime Energy = 0.61068 J

      Core 1:
        Area = 5.11302 mm^2
        Peak Dynamic Power = 0.725551 W
        Subthreshold Leakage Power = 0.910011 W
        Gate Leakage Power = 0.0793208 W
        Runtime Dynamic Power = 0.437017 W
        Runtime Dynamic Energy = 0.95689 J
        Total Runtime Energy = 3.12313 J

          Instruction Fetch Unit:
            Area = 1.07061 mm^2
            Peak Dynamic Power = 0.069507 W
            Subthreshold Leakage Power = 0.0768543 W
            Gate Leakage Power = 0.00183262 W
            Runtime Dynamic Power = 0.0733076 W
            Runtime Dynamic Energy = 0.160514 J
            Total Runtime Energy = 0.332806 J

              Instruction Cache:
                Area = 1.06646 mm^2
                Peak Dynamic Power = 0.0345629 W
                Subthreshold Leakage Power = 0.0723979 W
                Gate Leakage Power = 0.00168831 W
                Runtime Dynamic Power = 0.0425337 W
                Runtime Dynamic Energy = 0.0931317 J
                Total Runtime Energy = 0.255351 J

                  Data and Tag Arrays:
                    Area = 0.259164 mm^2
                    Peak Dynamic Power = 0 W
                    Subthreshold Leakage Power = 0.066312 W
                    Gate Leakage Power = 0.00138196 W
                    Runtime Dynamic Power = 0.0424863 W
                    Runtime Dynamic Energy = 0.0930278 J
                    Total Runtime Energy = 0.24125 J

                  Miss Buffer:
                    Area = 0.315209 mm^2
                    Peak Dynamic Power = 0.0124784 W
                    Subthreshold Leakage Power = 0.00218421 W
                    Gate Leakage Power = 0.000109941 W
                    Runtime Dynamic Power = 1.72204e-05 W
                    Runtime Dynamic Energy = 3.77057e-05 J
                    Total Runtime Energy = 0.00506098 J

                  Fill Buffer:
                    Area = 0.246043 mm^2
                    Peak Dynamic Power = 0.0110423 W
                    Subthreshold Leakage Power = 0.00195087 W
                    Gate Leakage Power = 9.82028e-05 W
                    Runtime Dynamic Power = 1.51041e-05 W
                    Runtime Dynamic Energy = 3.30719e-05 J
                    Total Runtime Energy = 0.00451971 J

                  Prefetch Buffer:
                    Area = 0.246043 mm^2
                    Peak Dynamic Power = 0.0110423 W
                    Subthreshold Leakage Power = 0.00195087 W
                    Gate Leakage Power = 9.82028e-05 W
                    Runtime Dynamic Power = 1.51041e-05 W
                    Runtime Dynamic Energy = 3.30719e-05 J
                    Total Runtime Energy = 0.00451971 J

              Instruction Buffer:
                Area = 0.00177465 mm^2
                Peak Dynamic Power = 0.00177346 W
                Subthreshold Leakage Power = 0.000334365 W
                Gate Leakage Power = 1.02451e-05 W
                Runtime Dynamic Power = 0.00156181 W
                Runtime Dynamic Energy = 0.00341974 J
                Total Runtime Energy = 0.00417429 J

              Instruction Opcode Decoder:
                Area = 0.000733115 mm^2
                Peak Dynamic Power = 0.0110556 W
                Subthreshold Leakage Power = 0.00127003 W
                Gate Leakage Power = 4.16647e-05 W
                Runtime Dynamic Power = 0.0097362 W
                Runtime Dynamic Energy = 0.0213183 J
                Total Runtime Energy = 0.0241904 J

              Instruction Operand Decoder:
                Area = 0.00018867 mm^2
                Peak Dynamic Power = 0.0110476 W
                Subthreshold Leakage Power = 0.00032028 W
                Gate Leakage Power = 1.08411e-05 W
                Runtime Dynamic Power = 0.00972915 W
                Runtime Dynamic Energy = 0.0213029 J
                Total Runtime Energy = 0.0220279 J

              Instruction Microcode Decoder:
                Area = 0.00144948 mm^2
                Peak Dynamic Power = 0.0110675 W
                Subthreshold Leakage Power = 0.00253168 W
                Gate Leakage Power = 8.15593e-05 W
                Runtime Dynamic Power = 0.00974667 W
                Runtime Dynamic Energy = 0.0213413 J
                Total Runtime Energy = 0.0270632 J

          Load/Store Unit:
            Area = 1.11574 mm^2
            Peak Dynamic Power = 0.0490235 W
            Subthreshold Leakage Power = 0.076641 W
            Gate Leakage Power = 0.00186238 W
            Runtime Dynamic Power = 0.0265604 W
            Runtime Dynamic Energy = 0.0581566 J
            Total Runtime Energy = 0.230047 J

              Data Cache:
                Area = 1.06646 mm^2
                Peak Dynamic Power = 0.0345629 W
                Subthreshold Leakage Power = 0.0723979 W
                Gate Leakage Power = 0.00168831 W
                Runtime Dynamic Power = 0.0190046 W
                Runtime Dynamic Energy = 0.0416123 J
                Total Runtime Energy = 0.203831 J

                  Data and Tag Arrays:
                    Area = 0.259164 mm^2
                    Peak Dynamic Power = 0 W
                    Subthreshold Leakage Power = 0.066312 W
                    Gate Leakage Power = 0.00138196 W
                    Runtime Dynamic Power = 0.0188496 W
                    Runtime Dynamic Energy = 0.041273 J
                    Total Runtime Energy = 0.189495 J

                  Miss Buffer:
                    Area = 0.315209 mm^2
                    Peak Dynamic Power = 0.0124784 W
                    Subthreshold Leakage Power = 0.00218421 W
                    Gate Leakage Power = 0.000109941 W
                    Runtime Dynamic Power = 5.75613e-05 W
                    Runtime Dynamic Energy = 0.000126036 J
                    Total Runtime Energy = 0.00514931 J

                  Fill Buffer:
                    Area = 0.246043 mm^2
                    Peak Dynamic Power = 0.0110423 W
                    Subthreshold Leakage Power = 0.00195087 W
                    Gate Leakage Power = 9.82028e-05 W
                    Runtime Dynamic Power = 5.04875e-05 W
                    Runtime Dynamic Energy = 0.000110547 J
                    Total Runtime Energy = 0.00459719 J

                  Prefetch Buffer:
                    Area = 0.246043 mm^2
                    Peak Dynamic Power = 0.0110423 W
                    Subthreshold Leakage Power = 0.00195087 W
                    Gate Leakage Power = 9.82028e-05 W
                    Runtime Dynamic Power = 4.69028e-05 W
                    Runtime Dynamic Energy = 0.000102698 J
                    Total Runtime Energy = 0.00458934 J

              Store Queue:
                Area = 0.0492795 mm^2
                Peak Dynamic Power = 0.0144605 W
                Subthreshold Leakage Power = 0.00424307 W
                Gate Leakage Power = 0.000174072 W
                Runtime Dynamic Power = 0.00755587 W
                Runtime Dynamic Energy = 0.0165443 J
                Total Runtime Energy = 0.026216 J

          Memory Management Unit:
            Area = 0.0640137 mm^2
            Peak Dynamic Power = 0.020655 W
            Subthreshold Leakage Power = 0.0107524 W
            Gate Leakage Power = 0.00041319 W
            Runtime Dynamic Power = 0.00801677 W
            Runtime Dynamic Energy = 0.0175535 J
            Total Runtime Energy = 0.0420016 J

              Instruction TLB:
                Area = 0.0196043 mm^2
                Peak Dynamic Power = 0.00880588 W
                Subthreshold Leakage Power = 0.00418736 W
                Gate Leakage Power = 0.000171372 W
                Runtime Dynamic Power = 0.00589513 W
                Runtime Dynamic Energy = 0.012908 J
                Total Runtime Energy = 0.0224518 J

              Data TLB:
                Area = 0.0444093 mm^2
                Peak Dynamic Power = 0.0118492 W
                Subthreshold Leakage Power = 0.00656505 W
                Gate Leakage Power = 0.000241817 W
                Runtime Dynamic Power = 0.00212164 W
                Runtime Dynamic Energy = 0.00464552 J
                Total Runtime Energy = 0.0195498 J

          Execution Unit:
            Area = 2.22898 mm^2
            Peak Dynamic Power = 0.586365 W
            Subthreshold Leakage Power = 0.497274 W
            Gate Leakage Power = 0.0497488 W
            Runtime Dynamic Power = 0.14581 W
            Runtime Dynamic Energy = 0.319265 J
            Total Runtime Energy = 1.51702 J

              Int Bypass Data:
                Area = 0.00171352 mm^2
                Peak Dynamic Power = 0 W
                Subthreshold Leakage Power = 0 W
                Gate Leakage Power = 0 W
                Runtime Dynamic Power = 8.03187e-10 W
                Runtime Dynamic Energy = 1.75865e-09 J
                Total Runtime Energy = 1.75865e-09 J

              Int Bypass Tag:
                Area = 0.00021419 mm^2
                Peak Dynamic Power = 0 W
                Subthreshold Leakage Power = 0 W
                Gate Leakage Power = 0 W
                Runtime Dynamic Power = 1.00398e-10 W
                Runtime Dynamic Energy = 2.19832e-10 J
                Total Runtime Energy = 2.19832e-10 J

              Mul Bypass Data:
                Area = 0.00383958 mm^2
                Peak Dynamic Power = 0 W
                Subthreshold Leakage Power = 0 W
                Gate Leakage Power = 0 W
                Runtime Dynamic Power = 2.57107e-10 W
                Runtime Dynamic Energy = 5.6296e-10 J
                Total Runtime Energy = 5.6296e-10 J

              Mul Bypass Tag:
                Area = 0.000319965 mm^2
                Peak Dynamic Power = 0 W
                Subthreshold Leakage Power = 0 W
                Gate Leakage Power = 0 W
                Runtime Dynamic Power = 2.14256e-11 W
                Runtime Dynamic Energy = 4.69133e-11 J
                Total Runtime Energy = 4.69133e-11 J

              FP Bypass Data:
                Area = 0.00547065 mm^2
                Peak Dynamic Power = 0 W
                Subthreshold Leakage Power = 0 W
                Gate Leakage Power = 0 W
                Runtime Dynamic Power = 7.32653e-10 W
                Runtime Dynamic Energy = 1.60421e-09 J
                Total Runtime Energy = 1.60421e-09 J

              FP Bypass Tag:
                Area = 0.00050165 mm^2
                Peak Dynamic Power = 0 W
                Subthreshold Leakage Power = 0 W
                Gate Leakage Power = 0 W
                Runtime Dynamic Power = 6.71832e-11 W
                Runtime Dynamic Energy = 1.47104e-10 J
                Total Runtime Energy = 1.47104e-10 J

              Register File Unit:
                Area = 0.0294128 mm^2
                Peak Dynamic Power = 0.0343622 W
                Subthreshold Leakage Power = 0.00191002 W
                Gate Leakage Power = 5.14853e-05 W
                Runtime Dynamic Power = 3.18495e-10 W
                Runtime Dynamic Energy = 6.97375e-10 J
                Total Runtime Energy = 0.00429491 J

                  Integer Register File:
                    Area = 0.0186223 mm^2
                    Peak Dynamic Power = 0.028914 W
                    Subthreshold Leakage Power = 0.000762251 W
                    Gate Leakage Power = 2.05735e-05 W
                    Runtime Dynamic Power = 2.51528e-10 W
                    Runtime Dynamic Energy = 5.50744e-10 J
                    Total Runtime Energy = 0.00171407 J

                  FP Register File:
                    Area = 0.0107906 mm^2
                    Peak Dynamic Power = 0.00544812 W
                    Subthreshold Leakage Power = 0.00114777 W
                    Gate Leakage Power = 3.09119e-05 W
                    Runtime Dynamic Power = 6.69672e-11 W
                    Runtime Dynamic Energy = 1.46631e-10 J
                    Total Runtime Energy = 0.00258085 J

              Integer ALU(s):
                Area = 0.138846 mm^2
                Peak Dynamic Power = 0.157715 W
                Subthreshold Leakage Power = 0.085206 W
                Gate Leakage Power = 0.00854828 W
                Runtime Dynamic Power = 0.0312649 W
                Runtime Dynamic Energy = 0.0684574 J
                Total Runtime Energy = 0.273741 J

              Floating Point Unit(s):
                Area = 1.8404 mm^2
                Peak Dynamic Power = 0.236573 W
                Subthreshold Leakage Power = 0.282349 W
                Gate Leakage Power = 0.0283266 W
                Runtime Dynamic Power = 0.114545 W
                Runtime Dynamic Energy = 0.250808 J
                Total Runtime Energy = 0.931062 J

              Multiply/Divide Unit(s):
                Area = 0.20827 mm^2
                Peak Dynamic Power = 0.157715 W
                Subthreshold Leakage Power = 0.127809 W
                Gate Leakage Power = 0.0128224 W
                Runtime Dynamic Power = 7.20294e-10 W
                Runtime Dynamic Energy = 1.57715e-09 J
                Total Runtime Energy = 0.307926 J

          Undifferentiated Core:
            Area = 0.528329 mm^2
            Peak Dynamic Power = 0 W
            Subthreshold Leakage Power = 0.16211 W
            Gate Leakage Power = 0.0162637 W
            Runtime Dynamic Power = 0 W
            Runtime Dynamic Energy = 0 J
            Total Runtime Energy = 0.390566 J

          Pipeline?:
            Area = 0.105346 mm^2
            Peak Dynamic Power = 0 W
            Subthreshold Leakage Power = 0.0863787 W
            Gate Leakage Power = 0.00920013 W
            Runtime Dynamic Power = 0.183322 W
            Runtime Dynamic Energy = 0.401401 J
            Total Runtime Energy = 0.61068 J

      Core 2:
        Area = 5.11302 mm^2
        Peak Dynamic Power = 0.725551 W
        Subthreshold Leakage Power = 0.910011 W
        Gate Leakage Power = 0.0793208 W
        Runtime Dynamic Power = 0.496576 W
        Runtime Dynamic Energy = 1.0873 J
        Total Runtime Energy = 3.25354 J

          Instruction Fetch Unit:
            Area = 1.07061 mm^2
            Peak Dynamic Power = 0.069507 W
            Subthreshold Leakage Power = 0.0768543 W
            Gate Leakage Power = 0.00183262 W
            Runtime Dynamic Power = 0.0923461 W
            Runtime Dynamic Energy = 0.202201 J
            Total Runtime Energy = 0.374493 J

              Instruction Cache:
                Area = 1.06646 mm^2
                Peak Dynamic Power = 0.0345629 W
                Subthreshold Leakage Power = 0.0723979 W
                Gate Leakage Power = 0.00168831 W
                Runtime Dynamic Power = 0.0539189 W
                Runtime Dynamic Energy = 0.118061 J
                Total Runtime Energy = 0.28028 J

                  Data and Tag Arrays:
                    Area = 0.259164 mm^2
                    Peak Dynamic Power = 0 W
                    Subthreshold Leakage Power = 0.066312 W
                    Gate Leakage Power = 0.00138196 W
                    Runtime Dynamic Power = 0.0538713 W
                    Runtime Dynamic Energy = 0.117956 J
                    Total Runtime Energy = 0.266179 J

                  Miss Buffer:
                    Area = 0.315209 mm^2
                    Peak Dynamic Power = 0.0124784 W
                    Subthreshold Leakage Power = 0.00218421 W
                    Gate Leakage Power = 0.000109941 W
                    Runtime Dynamic Power = 1.73108e-05 W
                    Runtime Dynamic Energy = 3.79037e-05 J
                    Total Runtime Energy = 0.00506117 J

                  Fill Buffer:
                    Area = 0.246043 mm^2
                    Peak Dynamic Power = 0.0110423 W
                    Subthreshold Leakage Power = 0.00195087 W
                    Gate Leakage Power = 9.82028e-05 W
                    Runtime Dynamic Power = 1.51835e-05 W
                    Runtime Dynamic Energy = 3.32456e-05 J
                    Total Runtime Energy = 0.00451989 J

                  Prefetch Buffer:
                    Area = 0.246043 mm^2
                    Peak Dynamic Power = 0.0110423 W
                    Subthreshold Leakage Power = 0.00195087 W
                    Gate Leakage Power = 9.82028e-05 W
                    Runtime Dynamic Power = 1.51835e-05 W
                    Runtime Dynamic Energy = 3.32456e-05 J
                    Total Runtime Energy = 0.00451989 J

              Instruction Buffer:
                Area = 0.00177465 mm^2
                Peak Dynamic Power = 0.00177346 W
                Subthreshold Leakage Power = 0.000334365 W
                Gate Leakage Power = 1.02451e-05 W
                Runtime Dynamic Power = 0.00195023 W
                Runtime Dynamic Energy = 0.00427021 J
                Total Runtime Energy = 0.00502476 J

              Instruction Opcode Decoder:
                Area = 0.000733115 mm^2
                Peak Dynamic Power = 0.0110556 W
                Subthreshold Leakage Power = 0.00127003 W
                Gate Leakage Power = 4.16647e-05 W
                Runtime Dynamic Power = 0.0121575 W
                Runtime Dynamic Energy = 0.0266201 J
                Total Runtime Energy = 0.0294922 J

              Instruction Operand Decoder:
                Area = 0.00018867 mm^2
                Peak Dynamic Power = 0.0110476 W
                Subthreshold Leakage Power = 0.00032028 W
                Gate Leakage Power = 1.08411e-05 W
                Runtime Dynamic Power = 0.0121487 W
                Runtime Dynamic Energy = 0.0266008 J
                Total Runtime Energy = 0.0273258 J

              Instruction Microcode Decoder:
                Area = 0.00144948 mm^2
                Peak Dynamic Power = 0.0110675 W
                Subthreshold Leakage Power = 0.00253168 W
                Gate Leakage Power = 8.15593e-05 W
                Runtime Dynamic Power = 0.0121706 W
                Runtime Dynamic Energy = 0.0266487 J
                Total Runtime Energy = 0.0323707 J

          Load/Store Unit:
            Area = 1.11574 mm^2
            Peak Dynamic Power = 0.0490235 W
            Subthreshold Leakage Power = 0.076641 W
            Gate Leakage Power = 0.00186238 W
            Runtime Dynamic Power = 0.0348628 W
            Runtime Dynamic Energy = 0.0763355 J
            Total Runtime Energy = 0.248226 J

              Data Cache:
                Area = 1.06646 mm^2
                Peak Dynamic Power = 0.0345629 W
                Subthreshold Leakage Power = 0.0723979 W
                Gate Leakage Power = 0.00168831 W
                Runtime Dynamic Power = 0.0250241 W
                Runtime Dynamic Energy = 0.0547926 J
                Total Runtime Energy = 0.217012 J

                  Data and Tag Arrays:
                    Area = 0.259164 mm^2
                    Peak Dynamic Power = 0 W
                    Subthreshold Leakage Power = 0.066312 W
                    Gate Leakage Power = 0.00138196 W
                    Runtime Dynamic Power = 0.0248339 W
                    Runtime Dynamic Energy = 0.0543762 J
                    Total Runtime Energy = 0.202599 J

                  Miss Buffer:
                    Area = 0.315209 mm^2
                    Peak Dynamic Power = 0.0124784 W
                    Subthreshold Leakage Power = 0.00218421 W
                    Gate Leakage Power = 0.000109941 W
                    Runtime Dynamic Power = 7.54901e-05 W
                    Runtime Dynamic Energy = 0.000165293 J
                    Total Runtime Energy = 0.00518856 J

                  Fill Buffer:
                    Area = 0.246043 mm^2
                    Peak Dynamic Power = 0.0110423 W
                    Subthreshold Leakage Power = 0.00195087 W
                    Gate Leakage Power = 9.82028e-05 W
                    Runtime Dynamic Power = 6.6213e-05 W
                    Runtime Dynamic Energy = 0.00014498 J
                    Total Runtime Energy = 0.00463162 J

                  Prefetch Buffer:
                    Area = 0.246043 mm^2
                    Peak Dynamic Power = 0.0110423 W
                    Subthreshold Leakage Power = 0.00195087 W
                    Gate Leakage Power = 9.82028e-05 W
                    Runtime Dynamic Power = 4.84552e-05 W
                    Runtime Dynamic Energy = 0.000106097 J
                    Total Runtime Energy = 0.00459274 J

              Store Queue:
                Area = 0.0492795 mm^2
                Peak Dynamic Power = 0.0144605 W
                Subthreshold Leakage Power = 0.00424307 W
                Gate Leakage Power = 0.000174072 W
                Runtime Dynamic Power = 0.00983877 W
                Runtime Dynamic Energy = 0.0215429 J
                Total Runtime Energy = 0.0312147 J

          Memory Management Unit:
            Area = 0.0640137 mm^2
            Peak Dynamic Power = 0.020655 W
            Subthreshold Leakage Power = 0.0107524 W
            Gate Leakage Power = 0.00041319 W
            Runtime Dynamic Power = 0.00986992 W
            Runtime Dynamic Energy = 0.0216111 J
            Total Runtime Energy = 0.0460593 J

              Instruction TLB:
                Area = 0.0196043 mm^2
                Peak Dynamic Power = 0.00880588 W
                Subthreshold Leakage Power = 0.00418736 W
                Gate Leakage Power = 0.000171372 W
                Runtime Dynamic Power = 0.00730513 W
                Runtime Dynamic Energy = 0.0159953 J
                Total Runtime Energy = 0.0255391 J

              Data TLB:
                Area = 0.0444093 mm^2
                Peak Dynamic Power = 0.0118492 W
                Subthreshold Leakage Power = 0.00656505 W
                Gate Leakage Power = 0.000241817 W
                Runtime Dynamic Power = 0.00256479 W
                Runtime Dynamic Energy = 0.00561586 J
                Total Runtime Energy = 0.0205202 J

          Execution Unit:
            Area = 2.22898 mm^2
            Peak Dynamic Power = 0.586365 W
            Subthreshold Leakage Power = 0.497274 W
            Gate Leakage Power = 0.0497488 W
            Runtime Dynamic Power = 0.176175 W
            Runtime Dynamic Energy = 0.385752 J
            Total Runtime Energy = 1.58351 J

              Int Bypass Data:
                Area = 0.00171352 mm^2
                Peak Dynamic Power = 0 W
                Subthreshold Leakage Power = 0 W
                Gate Leakage Power = 0 W
                Runtime Dynamic Power = 8.03187e-10 W
                Runtime Dynamic Energy = 1.75865e-09 J
                Total Runtime Energy = 1.75865e-09 J

              Int Bypass Tag:
                Area = 0.00021419 mm^2
                Peak Dynamic Power = 0 W
                Subthreshold Leakage Power = 0 W
                Gate Leakage Power = 0 W
                Runtime Dynamic Power = 1.00398e-10 W
                Runtime Dynamic Energy = 2.19832e-10 J
                Total Runtime Energy = 2.19832e-10 J

              Mul Bypass Data:
                Area = 0.00383958 mm^2
                Peak Dynamic Power = 0 W
                Subthreshold Leakage Power = 0 W
                Gate Leakage Power = 0 W
                Runtime Dynamic Power = 2.57107e-10 W
                Runtime Dynamic Energy = 5.6296e-10 J
                Total Runtime Energy = 5.6296e-10 J

              Mul Bypass Tag:
                Area = 0.000319965 mm^2
                Peak Dynamic Power = 0 W
                Subthreshold Leakage Power = 0 W
                Gate Leakage Power = 0 W
                Runtime Dynamic Power = 2.14256e-11 W
                Runtime Dynamic Energy = 4.69133e-11 J
                Total Runtime Energy = 4.69133e-11 J

              FP Bypass Data:
                Area = 0.00547065 mm^2
                Peak Dynamic Power = 0 W
                Subthreshold Leakage Power = 0 W
                Gate Leakage Power = 0 W
                Runtime Dynamic Power = 7.32653e-10 W
                Runtime Dynamic Energy = 1.60421e-09 J
                Total Runtime Energy = 1.60421e-09 J

              FP Bypass Tag:
                Area = 0.00050165 mm^2
                Peak Dynamic Power = 0 W
                Subthreshold Leakage Power = 0 W
                Gate Leakage Power = 0 W
                Runtime Dynamic Power = 6.71832e-11 W
                Runtime Dynamic Energy = 1.47104e-10 J
                Total Runtime Energy = 1.47104e-10 J

              Register File Unit:
                Area = 0.0294128 mm^2
                Peak Dynamic Power = 0.0343622 W
                Subthreshold Leakage Power = 0.00191002 W
                Gate Leakage Power = 5.14853e-05 W
                Runtime Dynamic Power = 3.18495e-10 W
                Runtime Dynamic Energy = 6.97375e-10 J
                Total Runtime Energy = 0.00429491 J

                  Integer Register File:
                    Area = 0.0186223 mm^2
                    Peak Dynamic Power = 0.028914 W
                    Subthreshold Leakage Power = 0.000762251 W
                    Gate Leakage Power = 2.05735e-05 W
                    Runtime Dynamic Power = 2.51528e-10 W
                    Runtime Dynamic Energy = 5.50744e-10 J
                    Total Runtime Energy = 0.00171407 J

                  FP Register File:
                    Area = 0.0107906 mm^2
                    Peak Dynamic Power = 0.00544812 W
                    Subthreshold Leakage Power = 0.00114777 W
                    Gate Leakage Power = 3.09119e-05 W
                    Runtime Dynamic Power = 6.69672e-11 W
                    Runtime Dynamic Energy = 1.46631e-10 J
                    Total Runtime Energy = 0.00258085 J

              Integer ALU(s):
                Area = 0.138846 mm^2
                Peak Dynamic Power = 0.157715 W
                Subthreshold Leakage Power = 0.085206 W
                Gate Leakage Power = 0.00854828 W
                Runtime Dynamic Power = 0.0419891 W
                Runtime Dynamic Energy = 0.0919391 J
                Total Runtime Energy = 0.297223 J

              Floating Point Unit(s):
                Area = 1.8404 mm^2
                Peak Dynamic Power = 0.236573 W
                Subthreshold Leakage Power = 0.282349 W
                Gate Leakage Power = 0.0283266 W
                Runtime Dynamic Power = 0.134186 W
                Runtime Dynamic Energy = 0.293812 J
                Total Runtime Energy = 0.974067 J

              Multiply/Divide Unit(s):
                Area = 0.20827 mm^2
                Peak Dynamic Power = 0.157715 W
                Subthreshold Leakage Power = 0.127809 W
                Gate Leakage Power = 0.0128224 W
                Runtime Dynamic Power = 7.20294e-10 W
                Runtime Dynamic Energy = 1.57715e-09 J
                Total Runtime Energy = 0.307926 J

          Undifferentiated Core:
            Area = 0.528329 mm^2
            Peak Dynamic Power = 0 W
            Subthreshold Leakage Power = 0.16211 W
            Gate Leakage Power = 0.0162637 W
            Runtime Dynamic Power = 0 W
            Runtime Dynamic Energy = 0 J
            Total Runtime Energy = 0.390566 J

          Pipeline?:
            Area = 0.105346 mm^2
            Peak Dynamic Power = 0 W
            Subthreshold Leakage Power = 0.0863787 W
            Gate Leakage Power = 0.00920013 W
            Runtime Dynamic Power = 0.183322 W
            Runtime Dynamic Energy = 0.401401 J
            Total Runtime Energy = 0.61068 J

      Core 3:
        Area = 5.11302 mm^2
        Peak Dynamic Power = 0.725551 W
        Subthreshold Leakage Power = 0.910011 W
        Gate Leakage Power = 0.0793208 W
        Runtime Dynamic Power = 0.461956 W
        Runtime Dynamic Energy = 1.0115 J
        Total Runtime Energy = 3.17773 J

          Instruction Fetch Unit:
            Area = 1.07061 mm^2
            Peak Dynamic Power = 0.069507 W
            Subthreshold Leakage Power = 0.0768543 W
            Gate Leakage Power = 0.00183262 W
            Runtime Dynamic Power = 0.0815763 W
            Runtime Dynamic Energy = 0.178619 J
            Total Runtime Energy = 0.350912 J

              Instruction Cache:
                Area = 1.06646 mm^2
                Peak Dynamic Power = 0.0345629 W
                Subthreshold Leakage Power = 0.0723979 W
                Gate Leakage Power = 0.00168831 W
                Runtime Dynamic Power = 0.0476155 W
                Runtime Dynamic Energy = 0.104259 J
                Total Runtime Energy = 0.266478 J

                  Data and Tag Arrays:
                    Area = 0.259164 mm^2
                    Peak Dynamic Power = 0 W
                    Subthreshold Leakage Power = 0.066312 W
                    Gate Leakage Power = 0.00138196 W
                    Runtime Dynamic Power = 0.0475649 W
                    Runtime Dynamic Energy = 0.104148 J
                    Total Runtime Energy = 0.25237 J

                  Miss Buffer:
                    Area = 0.315209 mm^2
                    Peak Dynamic Power = 0.0124784 W
                    Subthreshold Leakage Power = 0.00218421 W
                    Gate Leakage Power = 0.000109941 W
                    Runtime Dynamic Power = 1.83782e-05 W
                    Runtime Dynamic Energy = 4.02409e-05 J
                    Total Runtime Energy = 0.00506351 J

                  Fill Buffer:
                    Area = 0.246043 mm^2
                    Peak Dynamic Power = 0.0110423 W
                    Subthreshold Leakage Power = 0.00195087 W
                    Gate Leakage Power = 9.82028e-05 W
                    Runtime Dynamic Power = 1.61197e-05 W
                    Runtime Dynamic Energy = 3.52956e-05 J
                    Total Runtime Energy = 0.00452194 J

                  Prefetch Buffer:
                    Area = 0.246043 mm^2
                    Peak Dynamic Power = 0.0110423 W
                    Subthreshold Leakage Power = 0.00195087 W
                    Gate Leakage Power = 9.82028e-05 W
                    Runtime Dynamic Power = 1.61197e-05 W
                    Runtime Dynamic Energy = 3.52956e-05 J
                    Total Runtime Energy = 0.00452194 J

              Instruction Buffer:
                Area = 0.00177465 mm^2
                Peak Dynamic Power = 0.00177346 W
                Subthreshold Leakage Power = 0.000334365 W
                Gate Leakage Power = 1.02451e-05 W
                Runtime Dynamic Power = 0.00172356 W
                Runtime Dynamic Energy = 0.00377389 J
                Total Runtime Energy = 0.00452845 J

              Instruction Opcode Decoder:
                Area = 0.000733115 mm^2
                Peak Dynamic Power = 0.0110556 W
                Subthreshold Leakage Power = 0.00127003 W
                Gate Leakage Power = 4.16647e-05 W
                Runtime Dynamic Power = 0.0107445 W
                Runtime Dynamic Energy = 0.0235261 J
                Total Runtime Energy = 0.0263982 J

              Instruction Operand Decoder:
                Area = 0.00018867 mm^2
                Peak Dynamic Power = 0.0110476 W
                Subthreshold Leakage Power = 0.00032028 W
                Gate Leakage Power = 1.08411e-05 W
                Runtime Dynamic Power = 0.0107367 W
                Runtime Dynamic Energy = 0.0235091 J
                Total Runtime Energy = 0.0242341 J

              Instruction Microcode Decoder:
                Area = 0.00144948 mm^2
                Peak Dynamic Power = 0.0110675 W
                Subthreshold Leakage Power = 0.00253168 W
                Gate Leakage Power = 8.15593e-05 W
                Runtime Dynamic Power = 0.010756 W
                Runtime Dynamic Energy = 0.0235514 J
                Total Runtime Energy = 0.0292733 J

          Load/Store Unit:
            Area = 1.11574 mm^2
            Peak Dynamic Power = 0.0490235 W
            Subthreshold Leakage Power = 0.076641 W
            Gate Leakage Power = 0.00186238 W
            Runtime Dynamic Power = 0.0291439 W
            Runtime Dynamic Energy = 0.0638134 J
            Total Runtime Energy = 0.235704 J

              Data Cache:
                Area = 1.06646 mm^2
                Peak Dynamic Power = 0.0345629 W
                Subthreshold Leakage Power = 0.0723979 W
                Gate Leakage Power = 0.00168831 W
                Runtime Dynamic Power = 0.0208451 W
                Runtime Dynamic Energy = 0.0456423 J
                Total Runtime Energy = 0.207861 J

                  Data and Tag Arrays:
                    Area = 0.259164 mm^2
                    Peak Dynamic Power = 0 W
                    Subthreshold Leakage Power = 0.066312 W
                    Gate Leakage Power = 0.00138196 W
                    Runtime Dynamic Power = 0.0206646 W
                    Runtime Dynamic Energy = 0.0452471 J
                    Total Runtime Energy = 0.193469 J

                  Miss Buffer:
                    Area = 0.315209 mm^2
                    Peak Dynamic Power = 0.0124784 W
                    Subthreshold Leakage Power = 0.00218421 W
                    Gate Leakage Power = 0.000109941 W
                    Runtime Dynamic Power = 6.734e-05 W
                    Runtime Dynamic Energy = 0.000147447 J
                    Total Runtime Energy = 0.00517072 J

                  Fill Buffer:
                    Area = 0.246043 mm^2
                    Peak Dynamic Power = 0.0110423 W
                    Subthreshold Leakage Power = 0.00195087 W
                    Gate Leakage Power = 9.82028e-05 W
                    Runtime Dynamic Power = 5.90645e-05 W
                    Runtime Dynamic Energy = 0.000129327 J
                    Total Runtime Energy = 0.00461597 J

                  Prefetch Buffer:
                    Area = 0.246043 mm^2
                    Peak Dynamic Power = 0.0110423 W
                    Subthreshold Leakage Power = 0.00195087 W
                    Gate Leakage Power = 9.82028e-05 W
                    Runtime Dynamic Power = 5.40967e-05 W
                    Runtime Dynamic Energy = 0.00011845 J
                    Total Runtime Energy = 0.00460509 J

              Store Queue:
                Area = 0.0492795 mm^2
                Peak Dynamic Power = 0.0144605 W
                Subthreshold Leakage Power = 0.00424307 W
                Gate Leakage Power = 0.000174072 W
                Runtime Dynamic Power = 0.00829884 W
                Runtime Dynamic Energy = 0.0181711 J
                Total Runtime Energy = 0.0278429 J

          Memory Management Unit:
            Area = 0.0640137 mm^2
            Peak Dynamic Power = 0.020655 W
            Subthreshold Leakage Power = 0.0107524 W
            Gate Leakage Power = 0.00041319 W
            Runtime Dynamic Power = 0.00892885 W
            Runtime Dynamic Energy = 0.0195506 J
            Total Runtime Energy = 0.0439987 J

              Instruction TLB:
                Area = 0.0196043 mm^2
                Peak Dynamic Power = 0.00880588 W
                Subthreshold Leakage Power = 0.00418736 W
                Gate Leakage Power = 0.000171372 W
                Runtime Dynamic Power = 0.00660822 W
                Runtime Dynamic Energy = 0.0144693 J
                Total Runtime Energy = 0.0240132 J

              Data TLB:
                Area = 0.0444093 mm^2
                Peak Dynamic Power = 0.0118492 W
                Subthreshold Leakage Power = 0.00656505 W
                Gate Leakage Power = 0.000241817 W
                Runtime Dynamic Power = 0.00232062 W
                Runtime Dynamic Energy = 0.00508122 J
                Total Runtime Energy = 0.0199855 J

          Execution Unit:
            Area = 2.22898 mm^2
            Peak Dynamic Power = 0.586365 W
            Subthreshold Leakage Power = 0.497274 W
            Gate Leakage Power = 0.0497488 W
            Runtime Dynamic Power = 0.158984 W
            Runtime Dynamic Energy = 0.348112 J
            Total Runtime Energy = 1.54587 J

              Int Bypass Data:
                Area = 0.00171352 mm^2
                Peak Dynamic Power = 0 W
                Subthreshold Leakage Power = 0 W
                Gate Leakage Power = 0 W
                Runtime Dynamic Power = 8.03187e-10 W
                Runtime Dynamic Energy = 1.75865e-09 J
                Total Runtime Energy = 1.75865e-09 J

              Int Bypass Tag:
                Area = 0.00021419 mm^2
                Peak Dynamic Power = 0 W
                Subthreshold Leakage Power = 0 W
                Gate Leakage Power = 0 W
                Runtime Dynamic Power = 1.00398e-10 W
                Runtime Dynamic Energy = 2.19832e-10 J
                Total Runtime Energy = 2.19832e-10 J

              Mul Bypass Data:
                Area = 0.00383958 mm^2
                Peak Dynamic Power = 0 W
                Subthreshold Leakage Power = 0 W
                Gate Leakage Power = 0 W
                Runtime Dynamic Power = 2.57107e-10 W
                Runtime Dynamic Energy = 5.6296e-10 J
                Total Runtime Energy = 5.6296e-10 J

              Mul Bypass Tag:
                Area = 0.000319965 mm^2
                Peak Dynamic Power = 0 W
                Subthreshold Leakage Power = 0 W
                Gate Leakage Power = 0 W
                Runtime Dynamic Power = 2.14256e-11 W
                Runtime Dynamic Energy = 4.69133e-11 J
                Total Runtime Energy = 4.69133e-11 J

              FP Bypass Data:
                Area = 0.00547065 mm^2
                Peak Dynamic Power = 0 W
                Subthreshold Leakage Power = 0 W
                Gate Leakage Power = 0 W
                Runtime Dynamic Power = 7.32653e-10 W
                Runtime Dynamic Energy = 1.60421e-09 J
                Total Runtime Energy = 1.60421e-09 J

              FP Bypass Tag:
                Area = 0.00050165 mm^2
                Peak Dynamic Power = 0 W
                Subthreshold Leakage Power = 0 W
                Gate Leakage Power = 0 W
                Runtime Dynamic Power = 6.71832e-11 W
                Runtime Dynamic Energy = 1.47104e-10 J
                Total Runtime Energy = 1.47104e-10 J

              Register File Unit:
                Area = 0.0294128 mm^2
                Peak Dynamic Power = 0.0343622 W
                Subthreshold Leakage Power = 0.00191002 W
                Gate Leakage Power = 5.14853e-05 W
                Runtime Dynamic Power = 3.18495e-10 W
                Runtime Dynamic Energy = 6.97375e-10 J
                Total Runtime Energy = 0.00429491 J

                  Integer Register File:
                    Area = 0.0186223 mm^2
                    Peak Dynamic Power = 0.028914 W
                    Subthreshold Leakage Power = 0.000762251 W
                    Gate Leakage Power = 2.05735e-05 W
                    Runtime Dynamic Power = 2.51528e-10 W
                    Runtime Dynamic Energy = 5.50744e-10 J
                    Total Runtime Energy = 0.00171407 J

                  FP Register File:
                    Area = 0.0107906 mm^2
                    Peak Dynamic Power = 0.00544812 W
                    Subthreshold Leakage Power = 0.00114777 W
                    Gate Leakage Power = 3.09119e-05 W
                    Runtime Dynamic Power = 6.69672e-11 W
                    Runtime Dynamic Energy = 1.46631e-10 J
                    Total Runtime Energy = 0.00258085 J

              Integer ALU(s):
                Area = 0.138846 mm^2
                Peak Dynamic Power = 0.157715 W
                Subthreshold Leakage Power = 0.085206 W
                Gate Leakage Power = 0.00854828 W
                Runtime Dynamic Power = 0.0354657 W
                Runtime Dynamic Energy = 0.0776555 J
                Total Runtime Energy = 0.282939 J

              Floating Point Unit(s):
                Area = 1.8404 mm^2
                Peak Dynamic Power = 0.236573 W
                Subthreshold Leakage Power = 0.282349 W
                Gate Leakage Power = 0.0283266 W
                Runtime Dynamic Power = 0.123519 W
                Runtime Dynamic Energy = 0.270456 J
                Total Runtime Energy = 0.950711 J

              Multiply/Divide Unit(s):
                Area = 0.20827 mm^2
                Peak Dynamic Power = 0.157715 W
                Subthreshold Leakage Power = 0.127809 W
                Gate Leakage Power = 0.0128224 W
                Runtime Dynamic Power = 7.20294e-10 W
                Runtime Dynamic Energy = 1.57715e-09 J
                Total Runtime Energy = 0.307926 J

          Undifferentiated Core:
            Area = 0.528329 mm^2
            Peak Dynamic Power = 0 W
            Subthreshold Leakage Power = 0.16211 W
            Gate Leakage Power = 0.0162637 W
            Runtime Dynamic Power = 0 W
            Runtime Dynamic Energy = 0 J
            Total Runtime Energy = 0.390566 J

          Pipeline?:
            Area = 0.105346 mm^2
            Peak Dynamic Power = 0 W
            Subthreshold Leakage Power = 0.0863787 W
            Gate Leakage Power = 0.00920013 W
            Runtime Dynamic Power = 0.183322 W
            Runtime Dynamic Energy = 0.401401 J
            Total Runtime Energy = 0.61068 J

      Core 4:
        Area = 5.11302 mm^2
        Peak Dynamic Power = 0.725551 W
        Subthreshold Leakage Power = 0.910011 W
        Gate Leakage Power = 0.0793208 W
        Runtime Dynamic Power = 0.459272 W
        Runtime Dynamic Energy = 1.00562 J
        Total Runtime Energy = 3.17186 J

          Instruction Fetch Unit:
            Area = 1.07061 mm^2
            Peak Dynamic Power = 0.069507 W
            Subthreshold Leakage Power = 0.0768543 W
            Gate Leakage Power = 0.00183262 W
            Runtime Dynamic Power = 0.0805754 W
            Runtime Dynamic Energy = 0.176428 J
            Total Runtime Energy = 0.34872 J

              Instruction Cache:
                Area = 1.06646 mm^2
                Peak Dynamic Power = 0.0345629 W
                Subthreshold Leakage Power = 0.0723979 W
                Gate Leakage Power = 0.00168831 W
                Runtime Dynamic Power = 0.0469927 W
                Runtime Dynamic Energy = 0.102895 J
                Total Runtime Energy = 0.265114 J

                  Data and Tag Arrays:
                    Area = 0.259164 mm^2
                    Peak Dynamic Power = 0 W
                    Subthreshold Leakage Power = 0.066312 W
                    Gate Leakage Power = 0.00138196 W
                    Runtime Dynamic Power = 0.0469427 W
                    Runtime Dynamic Energy = 0.102785 J
                    Total Runtime Energy = 0.251008 J

                  Miss Buffer:
                    Area = 0.315209 mm^2
                    Peak Dynamic Power = 0.0124784 W
                    Subthreshold Leakage Power = 0.00218421 W
                    Gate Leakage Power = 0.000109941 W
                    Runtime Dynamic Power = 1.81477e-05 W
                    Runtime Dynamic Energy = 3.97361e-05 J
                    Total Runtime Energy = 0.00506301 J

                  Fill Buffer:
                    Area = 0.246043 mm^2
                    Peak Dynamic Power = 0.0110423 W
                    Subthreshold Leakage Power = 0.00195087 W
                    Gate Leakage Power = 9.82028e-05 W
                    Runtime Dynamic Power = 1.59175e-05 W
                    Runtime Dynamic Energy = 3.48529e-05 J
                    Total Runtime Energy = 0.0045215 J

                  Prefetch Buffer:
                    Area = 0.246043 mm^2
                    Peak Dynamic Power = 0.0110423 W
                    Subthreshold Leakage Power = 0.00195087 W
                    Gate Leakage Power = 9.82028e-05 W
                    Runtime Dynamic Power = 1.59175e-05 W
                    Runtime Dynamic Energy = 3.48529e-05 J
                    Total Runtime Energy = 0.0045215 J

              Instruction Buffer:
                Area = 0.00177465 mm^2
                Peak Dynamic Power = 0.00177346 W
                Subthreshold Leakage Power = 0.000334365 W
                Gate Leakage Power = 1.02451e-05 W
                Runtime Dynamic Power = 0.00170437 W
                Runtime Dynamic Energy = 0.00373188 J
                Total Runtime Energy = 0.00448644 J

              Instruction Opcode Decoder:
                Area = 0.000733115 mm^2
                Peak Dynamic Power = 0.0110556 W
                Subthreshold Leakage Power = 0.00127003 W
                Gate Leakage Power = 4.16647e-05 W
                Runtime Dynamic Power = 0.0106249 W
                Runtime Dynamic Energy = 0.0232642 J
                Total Runtime Energy = 0.0261363 J

              Instruction Operand Decoder:
                Area = 0.00018867 mm^2
                Peak Dynamic Power = 0.0110476 W
                Subthreshold Leakage Power = 0.00032028 W
                Gate Leakage Power = 1.08411e-05 W
                Runtime Dynamic Power = 0.0106172 W
                Runtime Dynamic Energy = 0.0232474 J
                Total Runtime Energy = 0.0239724 J

              Instruction Microcode Decoder:
                Area = 0.00144948 mm^2
                Peak Dynamic Power = 0.0110675 W
                Subthreshold Leakage Power = 0.00253168 W
                Gate Leakage Power = 8.15593e-05 W
                Runtime Dynamic Power = 0.0106363 W
                Runtime Dynamic Energy = 0.0232892 J
                Total Runtime Energy = 0.0290112 J

          Load/Store Unit:
            Area = 1.11574 mm^2
            Peak Dynamic Power = 0.0490235 W
            Subthreshold Leakage Power = 0.076641 W
            Gate Leakage Power = 0.00186238 W
            Runtime Dynamic Power = 0.0286573 W
            Runtime Dynamic Energy = 0.0627479 J
            Total Runtime Energy = 0.234639 J

              Data Cache:
                Area = 1.06646 mm^2
                Peak Dynamic Power = 0.0345629 W
                Subthreshold Leakage Power = 0.0723979 W
                Gate Leakage Power = 0.00168831 W
                Runtime Dynamic Power = 0.0204999 W
                Runtime Dynamic Energy = 0.0448865 J
                Total Runtime Energy = 0.207105 J

                  Data and Tag Arrays:
                    Area = 0.259164 mm^2
                    Peak Dynamic Power = 0 W
                    Subthreshold Leakage Power = 0.066312 W
                    Gate Leakage Power = 0.00138196 W
                    Runtime Dynamic Power = 0.0203158 W
                    Runtime Dynamic Energy = 0.0444834 J
                    Total Runtime Energy = 0.192706 J

                  Miss Buffer:
                    Area = 0.315209 mm^2
                    Peak Dynamic Power = 0.0124784 W
                    Subthreshold Leakage Power = 0.00218421 W
                    Gate Leakage Power = 0.000109941 W
                    Runtime Dynamic Power = 6.8122e-05 W
                    Runtime Dynamic Energy = 0.00014916 J
                    Total Runtime Energy = 0.00517243 J

                  Fill Buffer:
                    Area = 0.246043 mm^2
                    Peak Dynamic Power = 0.0110423 W
                    Subthreshold Leakage Power = 0.00195087 W
                    Gate Leakage Power = 9.82028e-05 W
                    Runtime Dynamic Power = 5.97504e-05 W
                    Runtime Dynamic Energy = 0.000130829 J
                    Total Runtime Energy = 0.00461747 J

                  Prefetch Buffer:
                    Area = 0.246043 mm^2
                    Peak Dynamic Power = 0.0110423 W
                    Subthreshold Leakage Power = 0.00195087 W
                    Gate Leakage Power = 9.82028e-05 W
                    Runtime Dynamic Power = 5.62102e-05 W
                    Runtime Dynamic Energy = 0.000123078 J
                    Total Runtime Energy = 0.00460972 J

              Store Queue:
                Area = 0.0492795 mm^2
                Peak Dynamic Power = 0.0144605 W
                Subthreshold Leakage Power = 0.00424307 W
                Gate Leakage Power = 0.000174072 W
                Runtime Dynamic Power = 0.00815743 W
                Runtime Dynamic Energy = 0.0178615 J
                Total Runtime Energy = 0.0275332 J

          Memory Management Unit:
            Area = 0.0640137 mm^2
            Peak Dynamic Power = 0.020655 W
            Subthreshold Leakage Power = 0.0107524 W
            Gate Leakage Power = 0.00041319 W
            Runtime Dynamic Power = 0.0088191 W
            Runtime Dynamic Energy = 0.0193103 J
            Total Runtime Energy = 0.0437584 J

              Instruction TLB:
                Area = 0.0196043 mm^2
                Peak Dynamic Power = 0.00880588 W
                Subthreshold Leakage Power = 0.00418736 W
                Gate Leakage Power = 0.000171372 W
                Runtime Dynamic Power = 0.00652213 W
                Runtime Dynamic Energy = 0.0142808 J
                Total Runtime Energy = 0.0238247 J

              Data TLB:
                Area = 0.0444093 mm^2
                Peak Dynamic Power = 0.0118492 W
                Subthreshold Leakage Power = 0.00656505 W
                Gate Leakage Power = 0.000241817 W
                Runtime Dynamic Power = 0.00229697 W
                Runtime Dynamic Energy = 0.00502944 J
                Total Runtime Energy = 0.0199337 J

          Execution Unit:
            Area = 2.22898 mm^2
            Peak Dynamic Power = 0.586365 W
            Subthreshold Leakage Power = 0.497274 W
            Gate Leakage Power = 0.0497488 W
            Runtime Dynamic Power = 0.157898 W
            Runtime Dynamic Energy = 0.345733 J
            Total Runtime Energy = 1.54349 J

              Int Bypass Data:
                Area = 0.00171352 mm^2
                Peak Dynamic Power = 0 W
                Subthreshold Leakage Power = 0 W
                Gate Leakage Power = 0 W
                Runtime Dynamic Power = 8.03187e-10 W
                Runtime Dynamic Energy = 1.75865e-09 J
                Total Runtime Energy = 1.75865e-09 J

              Int Bypass Tag:
                Area = 0.00021419 mm^2
                Peak Dynamic Power = 0 W
                Subthreshold Leakage Power = 0 W
                Gate Leakage Power = 0 W
                Runtime Dynamic Power = 1.00398e-10 W
                Runtime Dynamic Energy = 2.19832e-10 J
                Total Runtime Energy = 2.19832e-10 J

              Mul Bypass Data:
                Area = 0.00383958 mm^2
                Peak Dynamic Power = 0 W
                Subthreshold Leakage Power = 0 W
                Gate Leakage Power = 0 W
                Runtime Dynamic Power = 2.57107e-10 W
                Runtime Dynamic Energy = 5.6296e-10 J
                Total Runtime Energy = 5.6296e-10 J

              Mul Bypass Tag:
                Area = 0.000319965 mm^2
                Peak Dynamic Power = 0 W
                Subthreshold Leakage Power = 0 W
                Gate Leakage Power = 0 W
                Runtime Dynamic Power = 2.14256e-11 W
                Runtime Dynamic Energy = 4.69133e-11 J
                Total Runtime Energy = 4.69133e-11 J

              FP Bypass Data:
                Area = 0.00547065 mm^2
                Peak Dynamic Power = 0 W
                Subthreshold Leakage Power = 0 W
                Gate Leakage Power = 0 W
                Runtime Dynamic Power = 7.32653e-10 W
                Runtime Dynamic Energy = 1.60421e-09 J
                Total Runtime Energy = 1.60421e-09 J

              FP Bypass Tag:
                Area = 0.00050165 mm^2
                Peak Dynamic Power = 0 W
                Subthreshold Leakage Power = 0 W
                Gate Leakage Power = 0 W
                Runtime Dynamic Power = 6.71832e-11 W
                Runtime Dynamic Energy = 1.47104e-10 J
                Total Runtime Energy = 1.47104e-10 J

              Register File Unit:
                Area = 0.0294128 mm^2
                Peak Dynamic Power = 0.0343622 W
                Subthreshold Leakage Power = 0.00191002 W
                Gate Leakage Power = 5.14853e-05 W
                Runtime Dynamic Power = 3.18495e-10 W
                Runtime Dynamic Energy = 6.97375e-10 J
                Total Runtime Energy = 0.00429491 J

                  Integer Register File:
                    Area = 0.0186223 mm^2
                    Peak Dynamic Power = 0.028914 W
                    Subthreshold Leakage Power = 0.000762251 W
                    Gate Leakage Power = 2.05735e-05 W
                    Runtime Dynamic Power = 2.51528e-10 W
                    Runtime Dynamic Energy = 5.50744e-10 J
                    Total Runtime Energy = 0.00171407 J

                  FP Register File:
                    Area = 0.0107906 mm^2
                    Peak Dynamic Power = 0.00544812 W
                    Subthreshold Leakage Power = 0.00114777 W
                    Gate Leakage Power = 3.09119e-05 W
                    Runtime Dynamic Power = 6.69672e-11 W
                    Runtime Dynamic Energy = 1.46631e-10 J
                    Total Runtime Energy = 0.00258085 J

              Integer ALU(s):
                Area = 0.138846 mm^2
                Peak Dynamic Power = 0.157715 W
                Subthreshold Leakage Power = 0.085206 W
                Gate Leakage Power = 0.00854828 W
                Runtime Dynamic Power = 0.0347291 W
                Runtime Dynamic Energy = 0.0760427 J
                Total Runtime Energy = 0.281327 J

              Floating Point Unit(s):
                Area = 1.8404 mm^2
                Peak Dynamic Power = 0.236573 W
                Subthreshold Leakage Power = 0.282349 W
                Gate Leakage Power = 0.0283266 W
                Runtime Dynamic Power = 0.123169 W
                Runtime Dynamic Energy = 0.269691 J
                Total Runtime Energy = 0.949945 J

              Multiply/Divide Unit(s):
                Area = 0.20827 mm^2
                Peak Dynamic Power = 0.157715 W
                Subthreshold Leakage Power = 0.127809 W
                Gate Leakage Power = 0.0128224 W
                Runtime Dynamic Power = 7.20294e-10 W
                Runtime Dynamic Energy = 1.57715e-09 J
                Total Runtime Energy = 0.307926 J

          Undifferentiated Core:
            Area = 0.528329 mm^2
            Peak Dynamic Power = 0 W
            Subthreshold Leakage Power = 0.16211 W
            Gate Leakage Power = 0.0162637 W
            Runtime Dynamic Power = 0 W
            Runtime Dynamic Energy = 0 J
            Total Runtime Energy = 0.390566 J

          Pipeline?:
            Area = 0.105346 mm^2
            Peak Dynamic Power = 0 W
            Subthreshold Leakage Power = 0.0863787 W
            Gate Leakage Power = 0.00920013 W
            Runtime Dynamic Power = 0.183322 W
            Runtime Dynamic Energy = 0.401401 J
            Total Runtime Energy = 0.61068 J

      Core 5:
        Area = 5.11302 mm^2
        Peak Dynamic Power = 0.725551 W
        Subthreshold Leakage Power = 0.910011 W
        Gate Leakage Power = 0.0793208 W
        Runtime Dynamic Power = 0.44206 W
        Runtime Dynamic Energy = 0.967933 J
        Total Runtime Energy = 3.13417 J

          Instruction Fetch Unit:
            Area = 1.07061 mm^2
            Peak Dynamic Power = 0.069507 W
            Subthreshold Leakage Power = 0.0768543 W
            Gate Leakage Power = 0.00183262 W
            Runtime Dynamic Power = 0.0756668 W
            Runtime Dynamic Energy = 0.16568 J
            Total Runtime Energy = 0.337972 J

              Instruction Cache:
                Area = 1.06646 mm^2
                Peak Dynamic Power = 0.0345629 W
                Subthreshold Leakage Power = 0.0723979 W
                Gate Leakage Power = 0.00168831 W
                Runtime Dynamic Power = 0.0441316 W
                Runtime Dynamic Energy = 0.0966303 J
                Total Runtime Energy = 0.258849 J

                  Data and Tag Arrays:
                    Area = 0.259164 mm^2
                    Peak Dynamic Power = 0 W
                    Subthreshold Leakage Power = 0.066312 W
                    Gate Leakage Power = 0.00138196 W
                    Runtime Dynamic Power = 0.0440852 W
                    Runtime Dynamic Energy = 0.0965287 J
                    Total Runtime Energy = 0.244751 J

                  Miss Buffer:
                    Area = 0.315209 mm^2
                    Peak Dynamic Power = 0.0124784 W
                    Subthreshold Leakage Power = 0.00218421 W
                    Gate Leakage Power = 0.000109941 W
                    Runtime Dynamic Power = 1.68409e-05 W
                    Runtime Dynamic Energy = 3.68749e-05 J
                    Total Runtime Energy = 0.00506015 J

                  Fill Buffer:
                    Area = 0.246043 mm^2
                    Peak Dynamic Power = 0.0110423 W
                    Subthreshold Leakage Power = 0.00195087 W
                    Gate Leakage Power = 9.82028e-05 W
                    Runtime Dynamic Power = 1.47713e-05 W
                    Runtime Dynamic Energy = 3.23433e-05 J
                    Total Runtime Energy = 0.00451899 J

                  Prefetch Buffer:
                    Area = 0.246043 mm^2
                    Peak Dynamic Power = 0.0110423 W
                    Subthreshold Leakage Power = 0.00195087 W
                    Gate Leakage Power = 9.82028e-05 W
                    Runtime Dynamic Power = 1.47713e-05 W
                    Runtime Dynamic Energy = 3.23433e-05 J
                    Total Runtime Energy = 0.00451899 J

              Instruction Buffer:
                Area = 0.00177465 mm^2
                Peak Dynamic Power = 0.00177346 W
                Subthreshold Leakage Power = 0.000334365 W
                Gate Leakage Power = 1.02451e-05 W
                Runtime Dynamic Power = 0.00160045 W
                Runtime Dynamic Energy = 0.00350434 J
                Total Runtime Energy = 0.0042589 J

              Instruction Opcode Decoder:
                Area = 0.000733115 mm^2
                Peak Dynamic Power = 0.0110556 W
                Subthreshold Leakage Power = 0.00127003 W
                Gate Leakage Power = 4.16647e-05 W
                Runtime Dynamic Power = 0.00997708 W
                Runtime Dynamic Energy = 0.0218458 J
                Total Runtime Energy = 0.0247179 J

              Instruction Operand Decoder:
                Area = 0.00018867 mm^2
                Peak Dynamic Power = 0.0110476 W
                Subthreshold Leakage Power = 0.00032028 W
                Gate Leakage Power = 1.08411e-05 W
                Runtime Dynamic Power = 0.00996985 W
                Runtime Dynamic Energy = 0.0218299 J
                Total Runtime Energy = 0.022555 J

              Instruction Microcode Decoder:
                Area = 0.00144948 mm^2
                Peak Dynamic Power = 0.0110675 W
                Subthreshold Leakage Power = 0.00253168 W
                Gate Leakage Power = 8.15593e-05 W
                Runtime Dynamic Power = 0.0099878 W
                Runtime Dynamic Energy = 0.0218693 J
                Total Runtime Energy = 0.0275912 J

          Load/Store Unit:
            Area = 1.11574 mm^2
            Peak Dynamic Power = 0.0490235 W
            Subthreshold Leakage Power = 0.076641 W
            Gate Leakage Power = 0.00186238 W
            Runtime Dynamic Power = 0.0268626 W
            Runtime Dynamic Energy = 0.0588183 J
            Total Runtime Energy = 0.230709 J

              Data Cache:
                Area = 1.06646 mm^2
                Peak Dynamic Power = 0.0345629 W
                Subthreshold Leakage Power = 0.0723979 W
                Gate Leakage Power = 0.00168831 W
                Runtime Dynamic Power = 0.0191969 W
                Runtime Dynamic Energy = 0.0420334 J
                Total Runtime Energy = 0.204252 J

                  Data and Tag Arrays:
                    Area = 0.259164 mm^2
                    Peak Dynamic Power = 0 W
                    Subthreshold Leakage Power = 0.066312 W
                    Gate Leakage Power = 0.00138196 W
                    Runtime Dynamic Power = 0.0190392 W
                    Runtime Dynamic Energy = 0.0416881 J
                    Total Runtime Energy = 0.18991 J

                  Miss Buffer:
                    Area = 0.315209 mm^2
                    Peak Dynamic Power = 0.0124784 W
                    Subthreshold Leakage Power = 0.00218421 W
                    Gate Leakage Power = 0.000109941 W
                    Runtime Dynamic Power = 5.8577e-05 W
                    Runtime Dynamic Energy = 0.00012826 J
                    Total Runtime Energy = 0.00515153 J

                  Fill Buffer:
                    Area = 0.246043 mm^2
                    Peak Dynamic Power = 0.0110423 W
                    Subthreshold Leakage Power = 0.00195087 W
                    Gate Leakage Power = 9.82028e-05 W
                    Runtime Dynamic Power = 5.13784e-05 W
                    Runtime Dynamic Energy = 0.000112498 J
                    Total Runtime Energy = 0.00459914 J

                  Prefetch Buffer:
                    Area = 0.246043 mm^2
                    Peak Dynamic Power = 0.0110423 W
                    Subthreshold Leakage Power = 0.00195087 W
                    Gate Leakage Power = 9.82028e-05 W
                    Runtime Dynamic Power = 4.77546e-05 W
                    Runtime Dynamic Energy = 0.000104563 J
                    Total Runtime Energy = 0.00459121 J

              Store Queue:
                Area = 0.0492795 mm^2
                Peak Dynamic Power = 0.0144605 W
                Subthreshold Leakage Power = 0.00424307 W
                Gate Leakage Power = 0.000174072 W
                Runtime Dynamic Power = 0.00766575 W
                Runtime Dynamic Energy = 0.0167849 J
                Total Runtime Energy = 0.0264566 J

          Memory Management Unit:
            Area = 0.0640137 mm^2
            Peak Dynamic Power = 0.020655 W
            Subthreshold Leakage Power = 0.0107524 W
            Gate Leakage Power = 0.00041319 W
            Runtime Dynamic Power = 0.00827643 W
            Runtime Dynamic Energy = 0.018122 J
            Total Runtime Energy = 0.0425702 J

              Instruction TLB:
                Area = 0.0196043 mm^2
                Peak Dynamic Power = 0.00880588 W
                Subthreshold Leakage Power = 0.00418736 W
                Gate Leakage Power = 0.000171372 W
                Runtime Dynamic Power = 0.00612025 W
                Runtime Dynamic Energy = 0.0134009 J
                Total Runtime Energy = 0.0229447 J

              Data TLB:
                Area = 0.0444093 mm^2
                Peak Dynamic Power = 0.0118492 W
                Subthreshold Leakage Power = 0.00656505 W
                Gate Leakage Power = 0.000241817 W
                Runtime Dynamic Power = 0.00215618 W
                Runtime Dynamic Energy = 0.00472116 J
                Total Runtime Energy = 0.0196255 J

          Execution Unit:
            Area = 2.22898 mm^2
            Peak Dynamic Power = 0.586365 W
            Subthreshold Leakage Power = 0.497274 W
            Gate Leakage Power = 0.0497488 W
            Runtime Dynamic Power = 0.147932 W
            Runtime Dynamic Energy = 0.323912 J
            Total Runtime Energy = 1.52167 J

              Int Bypass Data:
                Area = 0.00171352 mm^2
                Peak Dynamic Power = 0 W
                Subthreshold Leakage Power = 0 W
                Gate Leakage Power = 0 W
                Runtime Dynamic Power = 8.03187e-10 W
                Runtime Dynamic Energy = 1.75865e-09 J
                Total Runtime Energy = 1.75865e-09 J

              Int Bypass Tag:
                Area = 0.00021419 mm^2
                Peak Dynamic Power = 0 W
                Subthreshold Leakage Power = 0 W
                Gate Leakage Power = 0 W
                Runtime Dynamic Power = 1.00398e-10 W
                Runtime Dynamic Energy = 2.19832e-10 J
                Total Runtime Energy = 2.19832e-10 J

              Mul Bypass Data:
                Area = 0.00383958 mm^2
                Peak Dynamic Power = 0 W
                Subthreshold Leakage Power = 0 W
                Gate Leakage Power = 0 W
                Runtime Dynamic Power = 2.57107e-10 W
                Runtime Dynamic Energy = 5.6296e-10 J
                Total Runtime Energy = 5.6296e-10 J

              Mul Bypass Tag:
                Area = 0.000319965 mm^2
                Peak Dynamic Power = 0 W
                Subthreshold Leakage Power = 0 W
                Gate Leakage Power = 0 W
                Runtime Dynamic Power = 2.14256e-11 W
                Runtime Dynamic Energy = 4.69133e-11 J
                Total Runtime Energy = 4.69133e-11 J

              FP Bypass Data:
                Area = 0.00547065 mm^2
                Peak Dynamic Power = 0 W
                Subthreshold Leakage Power = 0 W
                Gate Leakage Power = 0 W
                Runtime Dynamic Power = 7.32653e-10 W
                Runtime Dynamic Energy = 1.60421e-09 J
                Total Runtime Energy = 1.60421e-09 J

              FP Bypass Tag:
                Area = 0.00050165 mm^2
                Peak Dynamic Power = 0 W
                Subthreshold Leakage Power = 0 W
                Gate Leakage Power = 0 W
                Runtime Dynamic Power = 6.71832e-11 W
                Runtime Dynamic Energy = 1.47104e-10 J
[...]
            Runtime Dynamic Energy = 0.180243 J
            Total Runtime Energy = 0.352535 J

              Instruction Cache:
                Area = 1.06646 mm^2
                Peak Dynamic Power = 0.0345629 W
                Subthreshold Leakage Power = 0.0723979 W
                Gate Leakage Power = 0.00168831 W
                Runtime Dynamic Power = 0.0481173 W
                Runtime Dynamic Energy = 0.105357 J
                Total Runtime Energy = 0.267576 J

                  Data and Tag Arrays:
                    Area = 0.259164 mm^2
                    Peak Dynamic Power = 0 W
                    Subthreshold Leakage Power = 0.066312 W
                    Gate Leakage Power = 0.00138196 W
                    Runtime Dynamic Power = 0.0480686 W
                    Runtime Dynamic Energy = 0.105251 J
                    Total Runtime Energy = 0.253473 J

                  Miss Buffer:
                    Area = 0.315209 mm^2
                    Peak Dynamic Power = 0.0124784 W
                    Subthreshold Leakage Power = 0.00218421 W
                    Gate Leakage Power = 0.000109941 W
                    Runtime Dynamic Power = 1.7704e-05 W
                    Runtime Dynamic Energy = 3.87646e-05 J
                    Total Runtime Energy = 0.00506204 J

                  Fill Buffer:
                    Area = 0.246043 mm^2
                    Peak Dynamic Power = 0.0110423 W
                    Subthreshold Leakage Power = 0.00195087 W
                    Gate Leakage Power = 9.82028e-05 W
                    Runtime Dynamic Power = 1.55283e-05 W
                    Runtime Dynamic Energy = 3.40007e-05 J
                    Total Runtime Energy = 0.00452064 J

                  Prefetch Buffer:
                    Area = 0.246043 mm^2
                    Peak Dynamic Power = 0.0110423 W
                    Subthreshold Leakage Power = 0.00195087 W
                    Gate Leakage Power = 9.82028e-05 W
                    Runtime Dynamic Power = 1.55283e-05 W
                    Runtime Dynamic Energy = 3.40007e-05 J
                    Total Runtime Energy = 0.00452064 J

              Instruction Buffer:
                Area = 0.00177465 mm^2
                Peak Dynamic Power = 0.00177346 W
                Subthreshold Leakage Power = 0.000334365 W
                Gate Leakage Power = 1.02451e-05 W
                Runtime Dynamic Power = 0.00173572 W
                Runtime Dynamic Energy = 0.00380053 J
                Total Runtime Energy = 0.00455509 J

              Instruction Opcode Decoder:
                Area = 0.000733115 mm^2
                Peak Dynamic Power = 0.0110556 W
                Subthreshold Leakage Power = 0.00127003 W
                Gate Leakage Power = 4.16647e-05 W
                Runtime Dynamic Power = 0.0108203 W
                Runtime Dynamic Energy = 0.0236922 J
                Total Runtime Energy = 0.0265643 J

              Instruction Operand Decoder:
                Area = 0.00018867 mm^2
                Peak Dynamic Power = 0.0110476 W
                Subthreshold Leakage Power = 0.00032028 W
                Gate Leakage Power = 1.08411e-05 W
                Runtime Dynamic Power = 0.0108125 W
                Runtime Dynamic Energy = 0.023675 J
                Total Runtime Energy = 0.0244 J

              Instruction Microcode Decoder:
                Area = 0.00144948 mm^2
                Peak Dynamic Power = 0.0110675 W
                Subthreshold Leakage Power = 0.00253168 W
                Gate Leakage Power = 8.15593e-05 W
                Runtime Dynamic Power = 0.010832 W
                Runtime Dynamic Energy = 0.0237176 J
                Total Runtime Energy = 0.0294396 J

          Load/Store Unit:
            Area = 1.11574 mm^2
            Peak Dynamic Power = 0.0490235 W
            Subthreshold Leakage Power = 0.076641 W
            Gate Leakage Power = 0.00186238 W
            Runtime Dynamic Power = 0.0290363 W
            Runtime Dynamic Energy = 0.0635777 J
            Total Runtime Energy = 0.235468 J

              Data Cache:
                Area = 1.06646 mm^2
                Peak Dynamic Power = 0.0345629 W
                Subthreshold Leakage Power = 0.0723979 W
                Gate Leakage Power = 0.00168831 W
                Runtime Dynamic Power = 0.0207738 W
                Runtime Dynamic Energy = 0.0454862 J
                Total Runtime Energy = 0.207705 J

                  Data and Tag Arrays:
                    Area = 0.259164 mm^2
                    Peak Dynamic Power = 0 W
                    Subthreshold Leakage Power = 0.066312 W
                    Gate Leakage Power = 0.00138196 W
                    Runtime Dynamic Power = 0.0205744 W
                    Runtime Dynamic Energy = 0.0450496 J
                    Total Runtime Energy = 0.193272 J

                  Miss Buffer:
                    Area = 0.315209 mm^2
                    Peak Dynamic Power = 0.0124784 W
                    Subthreshold Leakage Power = 0.00218421 W
                    Gate Leakage Power = 0.000109941 W
                    Runtime Dynamic Power = 7.41549e-05 W
                    Runtime Dynamic Energy = 0.000162369 J
                    Total Runtime Energy = 0.00518564 J

                  Fill Buffer:
                    Area = 0.246043 mm^2
                    Peak Dynamic Power = 0.0110423 W
                    Subthreshold Leakage Power = 0.00195087 W
                    Gate Leakage Power = 9.82028e-05 W
                    Runtime Dynamic Power = 6.50419e-05 W
                    Runtime Dynamic Energy = 0.000142415 J
                    Total Runtime Energy = 0.00462906 J

                  Prefetch Buffer:
                    Area = 0.246043 mm^2
                    Peak Dynamic Power = 0.0110423 W
                    Subthreshold Leakage Power = 0.00195087 W
                    Gate Leakage Power = 9.82028e-05 W
                    Runtime Dynamic Power = 6.02046e-05 W
                    Runtime Dynamic Energy = 0.000131824 J
                    Total Runtime Energy = 0.00461847 J

              Store Queue:
                Area = 0.0492795 mm^2
                Peak Dynamic Power = 0.0144605 W
                Subthreshold Leakage Power = 0.00424307 W
                Gate Leakage Power = 0.000174072 W
                Runtime Dynamic Power = 0.00826249 W
                Runtime Dynamic Energy = 0.0180915 J
                Total Runtime Energy = 0.0277632 J

          Memory Management Unit:
            Area = 0.0640137 mm^2
            Peak Dynamic Power = 0.020655 W
            Subthreshold Leakage Power = 0.0107524 W
            Gate Leakage Power = 0.00041319 W
            Runtime Dynamic Power = 0.00901014 W
            Runtime Dynamic Energy = 0.0197286 J
            Total Runtime Energy = 0.0441767 J

              Instruction TLB:
                Area = 0.0196043 mm^2
                Peak Dynamic Power = 0.00880588 W
                Subthreshold Leakage Power = 0.00418736 W
                Gate Leakage Power = 0.000171372 W
                Runtime Dynamic Power = 0.00668007 W
                Runtime Dynamic Energy = 0.0146267 J
                Total Runtime Energy = 0.0241705 J

              Data TLB:
                Area = 0.0444093 mm^2
                Peak Dynamic Power = 0.0118492 W
                Subthreshold Leakage Power = 0.00656505 W
                Gate Leakage Power = 0.000241817 W
                Runtime Dynamic Power = 0.00233007 W
                Runtime Dynamic Energy = 0.00510192 J
                Total Runtime Energy = 0.0200062 J

          Execution Unit:
            Area = 2.22898 mm^2
            Peak Dynamic Power = 0.586365 W
            Subthreshold Leakage Power = 0.497274 W
            Gate Leakage Power = 0.0497488 W
            Runtime Dynamic Power = 0.160255 W
            Runtime Dynamic Energy = 0.350894 J
            Total Runtime Energy = 1.54865 J

              Int Bypass Data:
                Area = 0.00171352 mm^2
                Peak Dynamic Power = 0 W
                Subthreshold Leakage Power = 0 W
                Gate Leakage Power = 0 W
                Runtime Dynamic Power = 8.03187e-10 W
                Runtime Dynamic Energy = 1.75865e-09 J
                Total Runtime Energy = 1.75865e-09 J

              Int Bypass Tag:
                Area = 0.00021419 mm^2
                Peak Dynamic Power = 0 W
                Subthreshold Leakage Power = 0 W
                Gate Leakage Power = 0 W
                Runtime Dynamic Power = 1.00398e-10 W
                Runtime Dynamic Energy = 2.19832e-10 J
                Total Runtime Energy = 2.19832e-10 J

              Mul Bypass Data:
                Area = 0.00383958 mm^2
                Peak Dynamic Power = 0 W
                Subthreshold Leakage Power = 0 W
                Gate Leakage Power = 0 W
                Runtime Dynamic Power = 2.57107e-10 W
                Runtime Dynamic Energy = 5.6296e-10 J
                Total Runtime Energy = 5.6296e-10 J

              Mul Bypass Tag:
                Area = 0.000319965 mm^2
                Peak Dynamic Power = 0 W
                Subthreshold Leakage Power = 0 W
                Gate Leakage Power = 0 W
                Runtime Dynamic Power = 2.14256e-11 W
                Runtime Dynamic Energy = 4.69133e-11 J
                Total Runtime Energy = 4.69133e-11 J

              FP Bypass Data:
                Area = 0.00547065 mm^2
                Peak Dynamic Power = 0 W
                Subthreshold Leakage Power = 0 W
                Gate Leakage Power = 0 W
                Runtime Dynamic Power = 7.32653e-10 W
                Runtime Dynamic Energy = 1.60421e-09 J
                Total Runtime Energy = 1.60421e-09 J

              FP Bypass Tag:
                Area = 0.00050165 mm^2
                Peak Dynamic Power = 0 W
                Subthreshold Leakage Power = 0 W
                Gate Leakage Power = 0 W
                Runtime Dynamic Power = 6.71832e-11 W
                Runtime Dynamic Energy = 1.47104e-10 J
                Total Runtime Energy = 1.47104e-10 J

              Register File Unit:
                Area = 0.0294128 mm^2
                Peak Dynamic Power = 0.0343622 W
                Subthreshold Leakage Power = 0.00191002 W
                Gate Leakage Power = 5.14853e-05 W
                Runtime Dynamic Power = 3.18495e-10 W
                Runtime Dynamic Energy = 6.97375e-10 J
                Total Runtime Energy = 0.00429491 J

                  Integer Register File:
                    Area = 0.0186223 mm^2
                    Peak Dynamic Power = 0.028914 W
                    Subthreshold Leakage Power = 0.000762251 W
                    Gate Leakage Power = 2.05735e-05 W
                    Runtime Dynamic Power = 2.51528e-10 W
                    Runtime Dynamic Energy = 5.50744e-10 J
                    Total Runtime Energy = 0.00171407 J

                  FP Register File:
                    Area = 0.0107906 mm^2
                    Peak Dynamic Power = 0.00544812 W
                    Subthreshold Leakage Power = 0.00114777 W
                    Gate Leakage Power = 3.09119e-05 W
                    Runtime Dynamic Power = 6.69672e-11 W
                    Runtime Dynamic Energy = 1.46631e-10 J
                    Total Runtime Energy = 0.00258085 J

              Integer ALU(s):
                Area = 0.138846 mm^2
                Peak Dynamic Power = 0.157715 W
                Subthreshold Leakage Power = 0.085206 W
                Gate Leakage Power = 0.00854828 W
                Runtime Dynamic Power = 0.0356417 W
                Runtime Dynamic Energy = 0.0780409 J
                Total Runtime Energy = 0.283325 J

              Floating Point Unit(s):
                Area = 1.8404 mm^2
                Peak Dynamic Power = 0.236573 W
                Subthreshold Leakage Power = 0.282349 W
                Gate Leakage Power = 0.0283266 W
                Runtime Dynamic Power = 0.124614 W
                Runtime Dynamic Energy = 0.272854 J
                Total Runtime Energy = 0.953108 J

              Multiply/Divide Unit(s):
                Area = 0.20827 mm^2
                Peak Dynamic Power = 0.157715 W
                Subthreshold Leakage Power = 0.127809 W
                Gate Leakage Power = 0.0128224 W
                Runtime Dynamic Power = 7.20294e-10 W
                Runtime Dynamic Energy = 1.57715e-09 J
                Total Runtime Energy = 0.307926 J

          Undifferentiated Core:
            Area = 0.528329 mm^2
            Peak Dynamic Power = 0 W
            Subthreshold Leakage Power = 0.16211 W
            Gate Leakage Power = 0.0162637 W
            Runtime Dynamic Power = 0 W
            Runtime Dynamic Energy = 0 J
            Total Runtime Energy = 0.390566 J

          Pipeline?:
            Area = 0.105346 mm^2
            Peak Dynamic Power = 0 W
            Subthreshold Leakage Power = 0.0863787 W
            Gate Leakage Power = 0.00920013 W
            Runtime Dynamic Power = 0.183322 W
            Runtime Dynamic Energy = 0.401401 J
            Total Runtime Energy = 0.61068 J

      L2 Cache:
        Area = 2.37413 mm^2
        Peak Dynamic Power = 0.0345629 W
        Subthreshold Leakage Power = 0.575086 W
        Gate Leakage Power = 0.016576 W
        Runtime Dynamic Power = 0.0157871 W
        Runtime Dynamic Energy = 0.0345675 J
        Total Runtime Energy = 1.33007 J

          Data and Tag Arrays:
            Area = 1.56684 mm^2
            Peak Dynamic Power = 0 W
            Subthreshold Leakage Power = 0.569 W
            Gate Leakage Power = 0.0162696 W
            Runtime Dynamic Power = 0.0152365 W
            Runtime Dynamic Energy = 0.0333617 J
            Total Runtime Energy = 1.31487 J

          Miss Buffer:
            Area = 0.315209 mm^2
            Peak Dynamic Power = 0.0124784 W
            Subthreshold Leakage Power = 0.00218421 W
            Gate Leakage Power = 0.000109941 W
            Runtime Dynamic Power = 0.000208625 W
            Runtime Dynamic Energy = 0.000456804 J
            Total Runtime Energy = 0.00548007 J

          Fill Buffer:
            Area = 0.246043 mm^2
            Peak Dynamic Power = 0.0110423 W
            Subthreshold Leakage Power = 0.00195087 W
            Gate Leakage Power = 9.82028e-05 W
            Runtime Dynamic Power = 0.000182986 W
            Runtime Dynamic Energy = 0.000400666 J
            Total Runtime Energy = 0.00488731 J

          Prefetch Buffer:
            Area = 0.246043 mm^2
            Peak Dynamic Power = 0.0110423 W
            Subthreshold Leakage Power = 0.00195087 W
            Gate Leakage Power = 9.82028e-05 W
            Runtime Dynamic Power = 0.000159051 W
            Runtime Dynamic Energy = 0.000348258 J
            Total Runtime Energy = 0.0048349 J

      L2 Cache:
        Area = 2.37413 mm^2
        Peak Dynamic Power = 0.0345629 W
        Subthreshold Leakage Power = 0.575086 W
        Gate Leakage Power = 0.016576 W
        Runtime Dynamic Power = 0.0146859 W
        Runtime Dynamic Energy = 0.0321562 J
        Total Runtime Energy = 1.32766 J

          Data and Tag Arrays:
            Area = 1.56684 mm^2
            Peak Dynamic Power = 0 W
            Subthreshold Leakage Power = 0.569 W
            Gate Leakage Power = 0.0162696 W
            Runtime Dynamic Power = 0.014171 W
            Runtime Dynamic Energy = 0.0310287 J
            Total Runtime Energy = 1.31253 J

          Miss Buffer:
            Area = 0.315209 mm^2
            Peak Dynamic Power = 0.0124784 W
            Subthreshold Leakage Power = 0.00218421 W
            Gate Leakage Power = 0.000109941 W
            Runtime Dynamic Power = 0.000190409 W
            Runtime Dynamic Energy = 0.000416918 J
            Total Runtime Energy = 0.00544019 J

          Fill Buffer:
            Area = 0.246043 mm^2
            Peak Dynamic Power = 0.0110423 W
            Subthreshold Leakage Power = 0.00195087 W
            Gate Leakage Power = 9.82028e-05 W
            Runtime Dynamic Power = 0.000167009 W
            Runtime Dynamic Energy = 0.000365683 J
            Total Runtime Energy = 0.00485233 J

          Prefetch Buffer:
            Area = 0.246043 mm^2
            Peak Dynamic Power = 0.0110423 W
            Subthreshold Leakage Power = 0.00195087 W
            Gate Leakage Power = 9.82028e-05 W
            Runtime Dynamic Power = 0.000157506 W
            Runtime Dynamic Energy = 0.000344874 J
            Total Runtime Energy = 0.00483152 J

      L2 Cache:
        Area = 2.37413 mm^2
        Peak Dynamic Power = 0.0345629 W
        Subthreshold Leakage Power = 0.575086 W
        Gate Leakage Power = 0.016576 W
        Runtime Dynamic Power = 0.0147891 W
        Runtime Dynamic Energy = 0.0323821 J
        Total Runtime Energy = 1.32788 J

          Data and Tag Arrays:
            Area = 1.56684 mm^2
            Peak Dynamic Power = 0 W
            Subthreshold Leakage Power = 0.569 W
            Gate Leakage Power = 0.0162696 W
            Runtime Dynamic Power = 0.0142706 W
            Runtime Dynamic Energy = 0.0312469 J
            Total Runtime Energy = 1.31275 J

          Miss Buffer:
            Area = 0.315209 mm^2
            Peak Dynamic Power = 0.0124784 W
            Subthreshold Leakage Power = 0.00218421 W
            Gate Leakage Power = 0.000109941 W
            Runtime Dynamic Power = 0.000191723 W
            Runtime Dynamic Energy = 0.000419796 J
            Total Runtime Energy = 0.00544307 J

          Fill Buffer:
            Area = 0.246043 mm^2
            Peak Dynamic Power = 0.0110423 W
            Subthreshold Leakage Power = 0.00195087 W
            Gate Leakage Power = 9.82028e-05 W
            Runtime Dynamic Power = 0.000168162 W
            Runtime Dynamic Energy = 0.000368207 J
            Total Runtime Energy = 0.00485485 J

          Prefetch Buffer:
            Area = 0.246043 mm^2
            Peak Dynamic Power = 0.0110423 W
            Subthreshold Leakage Power = 0.00195087 W
            Gate Leakage Power = 9.82028e-05 W
            Runtime Dynamic Power = 0.000158579 W
            Runtime Dynamic Energy = 0.000347223 J
            Total Runtime Energy = 0.00483387 J

      L2 Cache:
        Area = 2.37413 mm^2
        Peak Dynamic Power = 0.0345629 W
        Subthreshold Leakage Power = 0.575086 W
        Gate Leakage Power = 0.016576 W
        Runtime Dynamic Power = 0.0158101 W
        Runtime Dynamic Energy = 0.0346177 J
        Total Runtime Energy = 1.33012 J

          Data and Tag Arrays:
            Area = 1.56684 mm^2
            Peak Dynamic Power = 0 W
            Subthreshold Leakage Power = 0.569 W
            Gate Leakage Power = 0.0162696 W
            Runtime Dynamic Power = 0.0152763 W
            Runtime Dynamic Energy = 0.0334489 J
            Total Runtime Energy = 1.31495 J

          Miss Buffer:
            Area = 0.315209 mm^2
            Peak Dynamic Power = 0.0124784 W
            Subthreshold Leakage Power = 0.00218421 W
            Gate Leakage Power = 0.000109941 W
            Runtime Dynamic Power = 0.000197397 W
            Runtime Dynamic Energy = 0.00043222 J
            Total Runtime Energy = 0.00545549 J

          Fill Buffer:
            Area = 0.246043 mm^2
            Peak Dynamic Power = 0.0110423 W
            Subthreshold Leakage Power = 0.00195087 W
            Gate Leakage Power = 9.82028e-05 W
            Runtime Dynamic Power = 0.000173139 W
            Runtime Dynamic Energy = 0.000379103 J
            Total Runtime Energy = 0.00486575 J

          Prefetch Buffer:
            Area = 0.246043 mm^2
            Peak Dynamic Power = 0.0110423 W
            Subthreshold Leakage Power = 0.00195087 W
            Gate Leakage Power = 9.82028e-05 W
            Runtime Dynamic Power = 0.00016326 W
            Runtime Dynamic Energy = 0.000357474 J
            Total Runtime Energy = 0.00484412 J

