gem5 Simulator System.  http://gem5.org
gem5 is copyrighted software; use the --copyright option for details.

gem5 compiled Aug 13 2015 19:09:46
gem5 started Aug 13 2015 20:15:24
gem5 executing on artery
command line: build/ALPHA_MOESI_hammer/gem5.opt -d build/ALPHA_MOESI_hammer/tests/opt/quick/se/50.memtest/alpha/linux/memtest-ruby-MOESI_hammer -re /home/joel/research/gem5/gem5/tests/run.py build/ALPHA_MOESI_hammer/tests/opt/quick/se/50.memtest/alpha/linux/memtest-ruby-MOESI_hammer

Global frequency set at 1000000000 ticks per second
info: Entering event queue @ 0.  Starting simulation...
Exiting @ tick 4735173 because maximum number of loads reached
