
---------- Begin Simulation Statistics ----------
sim_seconds                                  0.005921                       # Number of seconds simulated
sim_ticks                                     5920895                       # Number of ticks simulated
final_tick                                    5920895                       # Number of ticks from beginning of simulation (restored from checkpoints and never reset)
sim_freq                                   1000000000                       # Frequency of simulated ticks
host_tick_rate                                  58624                       # Simulator tick rate (ticks/s)
host_mem_usage                                 293400                       # Number of bytes of host memory used
host_seconds                                   101.00                       # Real time elapsed on the host
system.voltage_domain.voltage                       1                       # Voltage in Volts
system.clk_domain.clock                             1                       # Clock period in ticks
system.ruby.clk_domain.clock                        1                       # Clock period in ticks
system.ruby.outstanding_req_hist::bucket_size            2                      
system.ruby.outstanding_req_hist::max_bucket           19                      
system.ruby.outstanding_req_hist::samples       629183                      
system.ruby.outstanding_req_hist::mean      15.998474                      
system.ruby.outstanding_req_hist::gmean     15.997215                      
system.ruby.outstanding_req_hist::stdev      0.125555                      
system.ruby.outstanding_req_hist         |           8      0.00%      0.00% |          16      0.00%      0.00% |          16      0.00%      0.01% |          16      0.00%      0.01% |          16      0.00%      0.01% |          16      0.00%      0.01% |          16      0.00%      0.02% |          16      0.00%      0.02% |      629063     99.98%    100.00% |           0      0.00%    100.00%
system.ruby.outstanding_req_hist::total        629183                      
system.ruby.latency_hist::bucket_size            1024                      
system.ruby.latency_hist::max_bucket            10239                      
system.ruby.latency_hist::samples              629055                      
system.ruby.latency_hist::mean            1204.590594                      
system.ruby.latency_hist::gmean            823.731643                      
system.ruby.latency_hist::stdev            899.026148                      
system.ruby.latency_hist                 |      322549     51.28%     51.28% |      166734     26.51%     77.78% |      126612     20.13%     97.91% |       12813      2.04%     99.94% |         340      0.05%    100.00% |           7      0.00%    100.00% |           0      0.00%    100.00% |           0      0.00%    100.00% |           0      0.00%    100.00% |           0      0.00%    100.00%
system.ruby.latency_hist::total                629055                      
system.ruby.hit_latency_hist::bucket_size          256                      
system.ruby.hit_latency_hist::max_bucket         2559                      
system.ruby.hit_latency_hist::samples             752                      
system.ruby.hit_latency_hist::mean         140.220745                      
system.ruby.hit_latency_hist::gmean         42.859600                      
system.ruby.hit_latency_hist::stdev        185.954397                      
system.ruby.hit_latency_hist             |         612     81.38%     81.38% |         110     14.63%     96.01% |          20      2.66%     98.67% |           7      0.93%     99.60% |           1      0.13%     99.73% |           1      0.13%     99.87% |           1      0.13%    100.00% |           0      0.00%    100.00% |           0      0.00%    100.00% |           0      0.00%    100.00%
system.ruby.hit_latency_hist::total               752                      
system.ruby.miss_latency_hist::bucket_size         1024                      
system.ruby.miss_latency_hist::max_bucket        10239                      
system.ruby.miss_latency_hist::samples         628303                      
system.ruby.miss_latency_hist::mean       1205.864511                      
system.ruby.miss_latency_hist::gmean       826.651052                      
system.ruby.miss_latency_hist::stdev       898.786133                      
system.ruby.miss_latency_hist            |      321800     51.22%     51.22% |      166731     26.54%     77.75% |      126612     20.15%     97.91% |       12813      2.04%     99.94% |         340      0.05%    100.00% |           7      0.00%    100.00% |           0      0.00%    100.00% |           0      0.00%    100.00% |           0      0.00%    100.00% |           0      0.00%    100.00%
system.ruby.miss_latency_hist::total           628303                      
system.ruby.L1Cache.incomplete_times              423                      
system.ruby.l1_cntrl4.L1Dcache.demand_hits           19                       # Number of cache demand hits
system.ruby.l1_cntrl4.L1Dcache.demand_misses        78646                       # Number of cache demand misses
system.ruby.l1_cntrl4.L1Dcache.demand_accesses        78665                       # Number of cache demand accesses
system.ruby.l1_cntrl4.L1Icache.demand_hits            0                       # Number of cache demand hits
system.ruby.l1_cntrl4.L1Icache.demand_misses            0                       # Number of cache demand misses
system.ruby.l1_cntrl4.L1Icache.demand_accesses            0                       # Number of cache demand accesses
system.ruby.l1_cntrl4.L2cache.demand_hits           77                       # Number of cache demand hits
system.ruby.l1_cntrl4.L2cache.demand_misses        78569                       # Number of cache demand misses
system.ruby.l1_cntrl4.L2cache.demand_accesses        78646                       # Number of cache demand accesses
system.ruby.l1_cntrl5.L1Dcache.demand_hits           19                       # Number of cache demand hits
system.ruby.l1_cntrl5.L1Dcache.demand_misses        78666                       # Number of cache demand misses
system.ruby.l1_cntrl5.L1Dcache.demand_accesses        78685                       # Number of cache demand accesses
system.ruby.l1_cntrl5.L1Icache.demand_hits            0                       # Number of cache demand hits
system.ruby.l1_cntrl5.L1Icache.demand_misses            0                       # Number of cache demand misses
system.ruby.l1_cntrl5.L1Icache.demand_accesses            0                       # Number of cache demand accesses
system.ruby.l1_cntrl5.L2cache.demand_hits           76                       # Number of cache demand hits
system.ruby.l1_cntrl5.L2cache.demand_misses        78590                       # Number of cache demand misses
system.ruby.l1_cntrl5.L2cache.demand_accesses        78666                       # Number of cache demand accesses
system.ruby.l1_cntrl6.L1Dcache.demand_hits           16                       # Number of cache demand hits
system.ruby.l1_cntrl6.L1Dcache.demand_misses        78670                       # Number of cache demand misses
system.ruby.l1_cntrl6.L1Dcache.demand_accesses        78686                       # Number of cache demand accesses
system.ruby.l1_cntrl6.L1Icache.demand_hits            0                       # Number of cache demand hits
system.ruby.l1_cntrl6.L1Icache.demand_misses            0                       # Number of cache demand misses
system.ruby.l1_cntrl6.L1Icache.demand_accesses            0                       # Number of cache demand accesses
system.ruby.l1_cntrl6.L2cache.demand_hits           70                       # Number of cache demand hits
system.ruby.l1_cntrl6.L2cache.demand_misses        78600                       # Number of cache demand misses
system.ruby.l1_cntrl6.L2cache.demand_accesses        78670                       # Number of cache demand accesses
system.ruby.l1_cntrl7.L1Dcache.demand_hits           24                       # Number of cache demand hits
system.ruby.l1_cntrl7.L1Dcache.demand_misses        78321                       # Number of cache demand misses
system.ruby.l1_cntrl7.L1Dcache.demand_accesses        78345                       # Number of cache demand accesses
system.ruby.l1_cntrl7.L1Icache.demand_hits            0                       # Number of cache demand hits
system.ruby.l1_cntrl7.L1Icache.demand_misses            0                       # Number of cache demand misses
system.ruby.l1_cntrl7.L1Icache.demand_accesses            0                       # Number of cache demand accesses
system.ruby.l1_cntrl7.L2cache.demand_hits           78                       # Number of cache demand hits
system.ruby.l1_cntrl7.L2cache.demand_misses        78243                       # Number of cache demand misses
system.ruby.l1_cntrl7.L2cache.demand_accesses        78321                       # Number of cache demand accesses
system.ruby.l1_cntrl0.L1Dcache.demand_hits           17                       # Number of cache demand hits
system.ruby.l1_cntrl0.L1Dcache.demand_misses        78395                       # Number of cache demand misses
system.ruby.l1_cntrl0.L1Dcache.demand_accesses        78412                       # Number of cache demand accesses
system.ruby.l1_cntrl0.L1Icache.demand_hits            0                       # Number of cache demand hits
system.ruby.l1_cntrl0.L1Icache.demand_misses            0                       # Number of cache demand misses
system.ruby.l1_cntrl0.L1Icache.demand_accesses            0                       # Number of cache demand accesses
system.ruby.l1_cntrl0.L2cache.demand_hits           80                       # Number of cache demand hits
system.ruby.l1_cntrl0.L2cache.demand_misses        78315                       # Number of cache demand misses
system.ruby.l1_cntrl0.L2cache.demand_accesses        78395                       # Number of cache demand accesses
system.ruby.l1_cntrl1.L1Dcache.demand_hits           15                       # Number of cache demand hits
system.ruby.l1_cntrl1.L1Dcache.demand_misses        78908                       # Number of cache demand misses
system.ruby.l1_cntrl1.L1Dcache.demand_accesses        78923                       # Number of cache demand accesses
system.ruby.l1_cntrl1.L1Icache.demand_hits            0                       # Number of cache demand hits
system.ruby.l1_cntrl1.L1Icache.demand_misses            0                       # Number of cache demand misses
system.ruby.l1_cntrl1.L1Icache.demand_accesses            0                       # Number of cache demand accesses
system.ruby.l1_cntrl1.L2cache.demand_hits           80                       # Number of cache demand hits
system.ruby.l1_cntrl1.L2cache.demand_misses        78828                       # Number of cache demand misses
system.ruby.l1_cntrl1.L2cache.demand_accesses        78908                       # Number of cache demand accesses
system.ruby.l1_cntrl2.L1Dcache.demand_hits           15                       # Number of cache demand hits
system.ruby.l1_cntrl2.L1Dcache.demand_misses        78622                       # Number of cache demand misses
system.ruby.l1_cntrl2.L1Dcache.demand_accesses        78637                       # Number of cache demand accesses
system.ruby.l1_cntrl2.L1Icache.demand_hits            0                       # Number of cache demand hits
system.ruby.l1_cntrl2.L1Icache.demand_misses            0                       # Number of cache demand misses
system.ruby.l1_cntrl2.L1Icache.demand_accesses            0                       # Number of cache demand accesses
system.ruby.l1_cntrl2.L2cache.demand_hits           77                       # Number of cache demand hits
system.ruby.l1_cntrl2.L2cache.demand_misses        78545                       # Number of cache demand misses
system.ruby.l1_cntrl2.L2cache.demand_accesses        78622                       # Number of cache demand accesses
system.ruby.l1_cntrl3.L1Dcache.demand_hits           17                       # Number of cache demand hits
system.ruby.l1_cntrl3.L1Dcache.demand_misses        78711                       # Number of cache demand misses
system.ruby.l1_cntrl3.L1Dcache.demand_accesses        78728                       # Number of cache demand accesses
system.ruby.l1_cntrl3.L1Icache.demand_hits            0                       # Number of cache demand hits
system.ruby.l1_cntrl3.L1Icache.demand_misses            0                       # Number of cache demand misses
system.ruby.l1_cntrl3.L1Icache.demand_accesses            0                       # Number of cache demand accesses
system.ruby.l1_cntrl3.L2cache.demand_hits           72                       # Number of cache demand hits
system.ruby.l1_cntrl3.L2cache.demand_misses        78639                       # Number of cache demand misses
system.ruby.l1_cntrl3.L2cache.demand_accesses        78711                       # Number of cache demand accesses
system.ruby.network.routers0.percent_links_utilized    12.539882                      
system.ruby.network.routers0.msg_count.Request_Control::2        78315                      
system.ruby.network.routers0.msg_count.Request_Control::3           59                      
system.ruby.network.routers0.msg_count.Response_Data::4        80905                      
system.ruby.network.routers0.msg_count.Response_Control::4      1092447                      
system.ruby.network.routers0.msg_count.Writeback_Data::5        27634                      
system.ruby.network.routers0.msg_count.Writeback_Control::2        73965                      
system.ruby.network.routers0.msg_count.Writeback_Control::3        73965                      
system.ruby.network.routers0.msg_count.Writeback_Control::5        46315                      
system.ruby.network.routers0.msg_count.Broadcast_Control::3       549648                      
system.ruby.network.routers0.msg_count.Unblock_Control::5        78328                      
system.ruby.network.routers0.msg_bytes.Request_Control::2       626520                      
system.ruby.network.routers0.msg_bytes.Request_Control::3          472                      
system.ruby.network.routers0.msg_bytes.Response_Data::4      5825160                      
system.ruby.network.routers0.msg_bytes.Response_Control::4      8739576                      
system.ruby.network.routers0.msg_bytes.Writeback_Data::5      1989648                      
system.ruby.network.routers0.msg_bytes.Writeback_Control::2       591720                      
system.ruby.network.routers0.msg_bytes.Writeback_Control::3       591720                      
system.ruby.network.routers0.msg_bytes.Writeback_Control::5       370520                      
system.ruby.network.routers0.msg_bytes.Broadcast_Control::3      4397184                      
system.ruby.network.routers0.msg_bytes.Unblock_Control::5       626624                      
system.ruby.network.routers1.percent_links_utilized    12.590850                      
system.ruby.network.routers1.msg_count.Request_Control::2        78828                      
system.ruby.network.routers1.msg_count.Request_Control::3           53                      
system.ruby.network.routers1.msg_count.Response_Data::4        81413                      
system.ruby.network.routers1.msg_count.Response_Control::4      1095506                      
system.ruby.network.routers1.msg_count.Writeback_Data::5        27983                      
system.ruby.network.routers1.msg_count.Writeback_Control::2        74350                      
system.ruby.network.routers1.msg_count.Writeback_Control::3        74350                      
system.ruby.network.routers1.msg_count.Writeback_Control::5        46341                      
system.ruby.network.routers1.msg_count.Broadcast_Control::3       549124                      
system.ruby.network.routers1.msg_count.Unblock_Control::5        78851                      
system.ruby.network.routers1.msg_bytes.Request_Control::2       630624                      
system.ruby.network.routers1.msg_bytes.Request_Control::3          424                      
system.ruby.network.routers1.msg_bytes.Response_Data::4      5861736                      
system.ruby.network.routers1.msg_bytes.Response_Control::4      8764048                      
system.ruby.network.routers1.msg_bytes.Writeback_Data::5      2014776                      
system.ruby.network.routers1.msg_bytes.Writeback_Control::2       594800                      
system.ruby.network.routers1.msg_bytes.Writeback_Control::3       594800                      
system.ruby.network.routers1.msg_bytes.Writeback_Control::5       370728                      
system.ruby.network.routers1.msg_bytes.Broadcast_Control::3      4392992                      
system.ruby.network.routers1.msg_bytes.Unblock_Control::5       630808                      
system.ruby.network.routers2.percent_links_utilized    12.557548                      
system.ruby.network.routers2.msg_count.Request_Control::2        78545                      
system.ruby.network.routers2.msg_count.Request_Control::3           51                      
system.ruby.network.routers2.msg_count.Response_Data::4        81046                      
system.ruby.network.routers2.msg_count.Response_Control::4      1093927                      
system.ruby.network.routers2.msg_count.Writeback_Data::5        27726                      
system.ruby.network.routers2.msg_count.Writeback_Control::2        74128                      
system.ruby.network.routers2.msg_count.Writeback_Control::3        74128                      
system.ruby.network.routers2.msg_count.Writeback_Control::5        46381                      
system.ruby.network.routers2.msg_count.Broadcast_Control::3       549406                      
system.ruby.network.routers2.msg_count.Unblock_Control::5        78563                      
system.ruby.network.routers2.msg_bytes.Request_Control::2       628360                      
system.ruby.network.routers2.msg_bytes.Request_Control::3          408                      
system.ruby.network.routers2.msg_bytes.Response_Data::4      5835312                      
system.ruby.network.routers2.msg_bytes.Response_Control::4      8751416                      
system.ruby.network.routers2.msg_bytes.Writeback_Data::5      1996272                      
system.ruby.network.routers2.msg_bytes.Writeback_Control::2       593024                      
system.ruby.network.routers2.msg_bytes.Writeback_Control::3       593024                      
system.ruby.network.routers2.msg_bytes.Writeback_Control::5       371048                      
system.ruby.network.routers2.msg_bytes.Broadcast_Control::3      4395248                      
system.ruby.network.routers2.msg_bytes.Unblock_Control::5       628504                      
system.ruby.network.routers3.percent_links_utilized    12.569726                      
system.ruby.network.routers3.msg_count.Request_Control::2        78639                      
system.ruby.network.routers3.msg_count.Request_Control::3           54                      
system.ruby.network.routers3.msg_count.Response_Data::4        81256                      
system.ruby.network.routers3.msg_count.Response_Control::4      1094314                      
system.ruby.network.routers3.msg_count.Writeback_Data::5        27761                      
system.ruby.network.routers3.msg_count.Writeback_Control::2        74201                      
system.ruby.network.routers3.msg_count.Writeback_Control::3        74201                      
system.ruby.network.routers3.msg_count.Writeback_Control::5        46424                      
system.ruby.network.routers3.msg_count.Broadcast_Control::3       549323                      
system.ruby.network.routers3.msg_count.Unblock_Control::5        78652                      
system.ruby.network.routers3.msg_bytes.Request_Control::2       629112                      
system.ruby.network.routers3.msg_bytes.Request_Control::3          432                      
system.ruby.network.routers3.msg_bytes.Response_Data::4      5850432                      
system.ruby.network.routers3.msg_bytes.Response_Control::4      8754512                      
system.ruby.network.routers3.msg_bytes.Writeback_Data::5      1998792                      
system.ruby.network.routers3.msg_bytes.Writeback_Control::2       593608                      
system.ruby.network.routers3.msg_bytes.Writeback_Control::3       593608                      
system.ruby.network.routers3.msg_bytes.Writeback_Control::5       371392                      
system.ruby.network.routers3.msg_bytes.Broadcast_Control::3      4394584                      
system.ruby.network.routers3.msg_bytes.Unblock_Control::5       629216                      
system.ruby.network.routers4.percent_links_utilized    12.558849                      
system.ruby.network.routers4.msg_count.Request_Control::2        78569                      
system.ruby.network.routers4.msg_count.Request_Control::3           57                      
system.ruby.network.routers4.msg_count.Response_Data::4        81144                      
system.ruby.network.routers4.msg_count.Response_Control::4      1093886                      
system.ruby.network.routers4.msg_count.Writeback_Data::5        27693                      
system.ruby.network.routers4.msg_count.Writeback_Control::2        74027                      
system.ruby.network.routers4.msg_count.Writeback_Control::3        74027                      
system.ruby.network.routers4.msg_count.Writeback_Control::5        46298                      
system.ruby.network.routers4.msg_count.Broadcast_Control::3       549387                      
system.ruby.network.routers4.msg_count.Unblock_Control::5        78601                      
system.ruby.network.routers4.msg_bytes.Request_Control::2       628552                      
system.ruby.network.routers4.msg_bytes.Request_Control::3          456                      
system.ruby.network.routers4.msg_bytes.Response_Data::4      5842368                      
system.ruby.network.routers4.msg_bytes.Response_Control::4      8751088                      
system.ruby.network.routers4.msg_bytes.Writeback_Data::5      1993896                      
system.ruby.network.routers4.msg_bytes.Writeback_Control::2       592216                      
system.ruby.network.routers4.msg_bytes.Writeback_Control::3       592216                      
system.ruby.network.routers4.msg_bytes.Writeback_Control::5       370384                      
system.ruby.network.routers4.msg_bytes.Broadcast_Control::3      4395096                      
system.ruby.network.routers4.msg_bytes.Unblock_Control::5       628808                      
system.ruby.network.routers5.percent_links_utilized    12.551928                      
system.ruby.network.routers5.msg_count.Request_Control::2        78590                      
system.ruby.network.routers5.msg_count.Request_Control::3           45                      
system.ruby.network.routers5.msg_count.Response_Data::4        81153                      
system.ruby.network.routers5.msg_count.Response_Control::4      1094141                      
system.ruby.network.routers5.msg_count.Writeback_Data::5        27387                      
system.ruby.network.routers5.msg_count.Writeback_Control::2        74179                      
system.ruby.network.routers5.msg_count.Writeback_Control::3        74179                      
system.ruby.network.routers5.msg_count.Writeback_Control::5        46760                      
system.ruby.network.routers5.msg_count.Broadcast_Control::3       549374                      
system.ruby.network.routers5.msg_count.Unblock_Control::5        78618                      
system.ruby.network.routers5.msg_bytes.Request_Control::2       628720                      
system.ruby.network.routers5.msg_bytes.Request_Control::3          360                      
system.ruby.network.routers5.msg_bytes.Response_Data::4      5843016                      
system.ruby.network.routers5.msg_bytes.Response_Control::4      8753128                      
system.ruby.network.routers5.msg_bytes.Writeback_Data::5      1971864                      
system.ruby.network.routers5.msg_bytes.Writeback_Control::2       593432                      
system.ruby.network.routers5.msg_bytes.Writeback_Control::3       593432                      
system.ruby.network.routers5.msg_bytes.Writeback_Control::5       374080                      
system.ruby.network.routers5.msg_bytes.Broadcast_Control::3      4394992                      
system.ruby.network.routers5.msg_bytes.Unblock_Control::5       628944                      
system.ruby.network.routers6.percent_links_utilized    12.555969                      
system.ruby.network.routers6.msg_count.Request_Control::2        78600                      
system.ruby.network.routers6.msg_count.Request_Control::3           62                      
system.ruby.network.routers6.msg_count.Response_Data::4        81186                      
system.ruby.network.routers6.msg_count.Response_Control::4      1094124                      
system.ruby.network.routers6.msg_count.Writeback_Data::5        27482                      
system.ruby.network.routers6.msg_count.Writeback_Control::2        74144                      
system.ruby.network.routers6.msg_count.Writeback_Control::3        74144                      
system.ruby.network.routers6.msg_count.Writeback_Control::5        46633                      
system.ruby.network.routers6.msg_count.Broadcast_Control::3       549359                      
system.ruby.network.routers6.msg_count.Unblock_Control::5        78625                      
system.ruby.network.routers6.msg_bytes.Request_Control::2       628800                      
system.ruby.network.routers6.msg_bytes.Request_Control::3          496                      
system.ruby.network.routers6.msg_bytes.Response_Data::4      5845392                      
system.ruby.network.routers6.msg_bytes.Response_Control::4      8752992                      
system.ruby.network.routers6.msg_bytes.Writeback_Data::5      1978704                      
system.ruby.network.routers6.msg_bytes.Writeback_Control::2       593152                      
system.ruby.network.routers6.msg_bytes.Writeback_Control::3       593152                      
system.ruby.network.routers6.msg_bytes.Writeback_Control::5       373064                      
system.ruby.network.routers6.msg_bytes.Broadcast_Control::3      4394872                      
system.ruby.network.routers6.msg_bytes.Unblock_Control::5       629000                      
system.ruby.network.routers7.percent_links_utilized    12.542424                      
system.ruby.network.routers7.msg_count.Request_Control::2        78243                      
system.ruby.network.routers7.msg_count.Request_Control::3           42                      
system.ruby.network.routers7.msg_count.Response_Data::4        80772                      
system.ruby.network.routers7.msg_count.Response_Control::4      1092029                      
system.ruby.network.routers7.msg_count.Writeback_Data::5        27935                      
system.ruby.network.routers7.msg_count.Writeback_Control::2        73931                      
system.ruby.network.routers7.msg_count.Writeback_Control::3        73931                      
system.ruby.network.routers7.msg_count.Writeback_Control::5        45971                      
system.ruby.network.routers7.msg_count.Broadcast_Control::3       549721                      
system.ruby.network.routers7.msg_count.Unblock_Control::5        78264                      
system.ruby.network.routers7.msg_bytes.Request_Control::2       625944                      
system.ruby.network.routers7.msg_bytes.Request_Control::3          336                      
system.ruby.network.routers7.msg_bytes.Response_Data::4      5815584                      
system.ruby.network.routers7.msg_bytes.Response_Control::4      8736232                      
system.ruby.network.routers7.msg_bytes.Writeback_Data::5      2011320                      
system.ruby.network.routers7.msg_bytes.Writeback_Control::2       591448                      
system.ruby.network.routers7.msg_bytes.Writeback_Control::3       591448                      
system.ruby.network.routers7.msg_bytes.Writeback_Control::5       367768                      
system.ruby.network.routers7.msg_bytes.Broadcast_Control::3      4397768                      
system.ruby.network.routers7.msg_bytes.Unblock_Control::5       626112                      
system.ruby.memctrl_clk_domain.clock                3                       # Clock period in ticks
system.ruby.dir_cntrl0.memBuffer.memReq        829348                       # Total number of memory requests
system.ruby.dir_cntrl0.memBuffer.memRead       607726                       # Number of memory reads
system.ruby.dir_cntrl0.memBuffer.memWrite       221589                       # Number of memory writes
system.ruby.dir_cntrl0.memBuffer.memRefresh        41118                       # Number of memory refreshes
system.ruby.dir_cntrl0.memBuffer.memWaitCycles     29891924                       # Delay stalled at the head of the bank queue
system.ruby.dir_cntrl0.memBuffer.memInputQ       415495                       # Delay in the input queue
system.ruby.dir_cntrl0.memBuffer.memBankQ     20161616                       # Delay behind the head of the bank queue
system.ruby.dir_cntrl0.memBuffer.totalStalls     50469035                       # Total number of stall cycles
system.ruby.dir_cntrl0.memBuffer.stallsPerReq    60.853870                       # Expected number of stall cycles per request
system.ruby.dir_cntrl0.memBuffer.memBankBusy      4511761                       # memory stalls due to busy bank
system.ruby.dir_cntrl0.memBuffer.memBusBusy      8350172                       # memory stalls due to busy bus
system.ruby.dir_cntrl0.memBuffer.memReadWriteBusy      2127555                       # memory stalls due to read write turnaround
system.ruby.dir_cntrl0.memBuffer.memDataBusBusy      1394322                       # memory stalls due to read read turnaround
system.ruby.dir_cntrl0.memBuffer.memArbWait      6158676                       # memory stalls due to arbitration
system.ruby.dir_cntrl0.memBuffer.memNotOld      7349438                       # memory stalls due to anti starvation
system.ruby.dir_cntrl0.memBuffer.memBankCount |       26193      3.16%      3.16% |       26128      3.15%      6.31% |       26105      3.15%      9.46% |       25961      3.13%     12.59% |       26151      3.15%     15.74% |       26370      3.18%     18.92% |       25970      3.13%     22.05% |       26083      3.15%     25.20% |       25945      3.13%     28.32% |       25763      3.11%     31.43% |       26082      3.14%     34.58% |       26004      3.14%     37.71% |       26080      3.14%     40.86% |       26077      3.14%     44.00% |       25922      3.13%     47.13% |       25819      3.11%     50.24% |       25968      3.13%     53.37% |       25870      3.12%     56.49% |       25867      3.12%     59.61% |       25796      3.11%     62.72% |       25881      3.12%     65.84% |       25705      3.10%     68.94% |       25499      3.07%     72.01% |       25623      3.09%     75.10% |       26078      3.14%     78.25% |       25821      3.11%     81.36% |       25430      3.07%     84.43% |       25795      3.11%     87.54% |       25934      3.13%     90.66% |       25506      3.08%     93.74% |       25828      3.11%     96.85% |       26094      3.15%    100.00% # Number of accesses per bank
system.ruby.dir_cntrl0.memBuffer.memBankCount::total       829348                       # Number of accesses per bank
system.ruby.dir_cntrl0.probeFilter.demand_hits            0                       # Number of cache demand hits
system.ruby.dir_cntrl0.probeFilter.demand_misses            0                       # Number of cache demand misses
system.ruby.dir_cntrl0.probeFilter.demand_accesses            0                       # Number of cache demand accesses
system.ruby.network.routers8.percent_links_utilized    46.048912                      
system.ruby.network.routers8.msg_count.Request_Control::2       628329                      
system.ruby.network.routers8.msg_count.Request_Control::3          423                      
system.ruby.network.routers8.msg_count.Response_Data::4       607721                      
system.ruby.network.routers8.msg_count.Writeback_Data::5       221601                      
system.ruby.network.routers8.msg_count.Writeback_Control::2       592925                      
system.ruby.network.routers8.msg_count.Writeback_Control::3       592925                      
system.ruby.network.routers8.msg_count.Writeback_Control::5       371123                      
system.ruby.network.routers8.msg_count.Broadcast_Control::3       627906                      
system.ruby.network.routers8.msg_count.Unblock_Control::5       628502                      
system.ruby.network.routers8.msg_bytes.Request_Control::2      5026632                      
system.ruby.network.routers8.msg_bytes.Request_Control::3         3384                      
system.ruby.network.routers8.msg_bytes.Response_Data::4     43755912                      
system.ruby.network.routers8.msg_bytes.Writeback_Data::5     15955272                      
system.ruby.network.routers8.msg_bytes.Writeback_Control::2      4743400                      
system.ruby.network.routers8.msg_bytes.Writeback_Control::3      4743400                      
system.ruby.network.routers8.msg_bytes.Writeback_Control::5      2968984                      
system.ruby.network.routers8.msg_bytes.Broadcast_Control::3      5023248                      
system.ruby.network.routers8.msg_bytes.Unblock_Control::5      5028016                      
system.ruby.network.routers9.percent_links_utilized    18.047053                      
system.ruby.network.routers9.msg_count.Request_Control::2       628329                      
system.ruby.network.routers9.msg_count.Request_Control::3          423                      
system.ruby.network.routers9.msg_count.Response_Data::4       628298                      
system.ruby.network.routers9.msg_count.Response_Control::4      4375187                      
system.ruby.network.routers9.msg_count.Writeback_Data::5       221601                      
system.ruby.network.routers9.msg_count.Writeback_Control::2       592925                      
system.ruby.network.routers9.msg_count.Writeback_Control::3       592925                      
system.ruby.network.routers9.msg_count.Writeback_Control::5       371123                      
system.ruby.network.routers9.msg_count.Broadcast_Control::3      4395342                      
system.ruby.network.routers9.msg_count.Unblock_Control::5       628502                      
system.ruby.network.routers9.msg_bytes.Request_Control::2      5026632                      
system.ruby.network.routers9.msg_bytes.Request_Control::3         3384                      
system.ruby.network.routers9.msg_bytes.Response_Data::4     45237456                      
system.ruby.network.routers9.msg_bytes.Response_Control::4     35001496                      
system.ruby.network.routers9.msg_bytes.Writeback_Data::5     15955272                      
system.ruby.network.routers9.msg_bytes.Writeback_Control::2      4743400                      
system.ruby.network.routers9.msg_bytes.Writeback_Control::3      4743400                      
system.ruby.network.routers9.msg_bytes.Writeback_Control::5      2968984                      
system.ruby.network.routers9.msg_bytes.Broadcast_Control::3     35162736                      
system.ruby.network.routers9.msg_bytes.Unblock_Control::5      5028016                      
system.ruby.network.msg_count.Request_Control      1886256                      
system.ruby.network.msg_count.Response_Data      1884894                      
system.ruby.network.msg_count.Response_Control     13125561                      
system.ruby.network.msg_count.Writeback_Data       664803                      
system.ruby.network.msg_count.Writeback_Control      4670919                      
system.ruby.network.msg_count.Broadcast_Control      9418590                      
system.ruby.network.msg_count.Unblock_Control      1885506                      
system.ruby.network.msg_byte.Request_Control     15090048                      
system.ruby.network.msg_byte.Response_Data    135712368                      
system.ruby.network.msg_byte.Response_Control    105004488                      
system.ruby.network.msg_byte.Writeback_Data     47865816                      
system.ruby.network.msg_byte.Writeback_Control     37367352                      
system.ruby.network.msg_byte.Broadcast_Control     75348720                      
system.ruby.network.msg_byte.Unblock_Control     15084048                      
system.funcbus.throughput                           0                       # Throughput (bytes/s)
system.funcbus.data_through_bus                     0                       # Total data (bytes)
system.cpu_clk_domain.clock                         1                       # Clock period in ticks
system.cpu0.num_reads                           99506                       # number of read accesses completed
system.cpu0.num_writes                          55459                       # number of write accesses completed
system.cpu0.num_copies                              0                       # number of copy accesses completed
system.cpu1.num_reads                          100000                       # number of read accesses completed
system.cpu1.num_writes                          56034                       # number of write accesses completed
system.cpu1.num_copies                              0                       # number of copy accesses completed
system.cpu2.num_reads                           99774                       # number of read accesses completed
system.cpu2.num_writes                          55650                       # number of write accesses completed
system.cpu2.num_copies                              0                       # number of copy accesses completed
system.cpu3.num_reads                           99487                       # number of read accesses completed
system.cpu3.num_writes                          55471                       # number of write accesses completed
system.cpu3.num_copies                              0                       # number of copy accesses completed
system.cpu4.num_reads                           99515                       # number of read accesses completed
system.cpu4.num_writes                          55612                       # number of write accesses completed
system.cpu4.num_copies                              0                       # number of copy accesses completed
system.cpu5.num_reads                           99579                       # number of read accesses completed
system.cpu5.num_writes                          55211                       # number of write accesses completed
system.cpu5.num_copies                              0                       # number of copy accesses completed
system.cpu6.num_reads                           99679                       # number of read accesses completed
system.cpu6.num_writes                          55618                       # number of write accesses completed
system.cpu6.num_copies                              0                       # number of copy accesses completed
system.cpu7.num_reads                           98792                       # number of read accesses completed
system.cpu7.num_writes                          55627                       # number of write accesses completed
system.cpu7.num_copies                              0                       # number of copy accesses completed
system.ruby.network.routers0.throttle0.link_utilization    15.823528                      
system.ruby.network.routers0.throttle0.msg_count.Request_Control::3           59                      
system.ruby.network.routers0.throttle0.msg_count.Response_Data::4        78309                      
system.ruby.network.routers0.throttle0.msg_count.Response_Control::4       545336                      
system.ruby.network.routers0.throttle0.msg_count.Writeback_Control::3        73965                      
system.ruby.network.routers0.throttle0.msg_count.Broadcast_Control::3       549648                      
system.ruby.network.routers0.throttle0.msg_bytes.Request_Control::3          472                      
system.ruby.network.routers0.throttle0.msg_bytes.Response_Data::4      5638248                      
system.ruby.network.routers0.throttle0.msg_bytes.Response_Control::4      4362688                      
system.ruby.network.routers0.throttle0.msg_bytes.Writeback_Control::3       591720                      
system.ruby.network.routers0.throttle0.msg_bytes.Broadcast_Control::3      4397184                      
system.ruby.network.routers0.throttle1.link_utilization     9.256236                      
system.ruby.network.routers0.throttle1.msg_count.Request_Control::2        78315                      
system.ruby.network.routers0.throttle1.msg_count.Response_Data::4         2596                      
system.ruby.network.routers0.throttle1.msg_count.Response_Control::4       547111                      
system.ruby.network.routers0.throttle1.msg_count.Writeback_Data::5        27634                      
system.ruby.network.routers0.throttle1.msg_count.Writeback_Control::2        73965                      
system.ruby.network.routers0.throttle1.msg_count.Writeback_Control::5        46315                      
system.ruby.network.routers0.throttle1.msg_count.Unblock_Control::5        78328                      
system.ruby.network.routers0.throttle1.msg_bytes.Request_Control::2       626520                      
system.ruby.network.routers0.throttle1.msg_bytes.Response_Data::4       186912                      
system.ruby.network.routers0.throttle1.msg_bytes.Response_Control::4      4376888                      
system.ruby.network.routers0.throttle1.msg_bytes.Writeback_Data::5      1989648                      
system.ruby.network.routers0.throttle1.msg_bytes.Writeback_Control::2       591720                      
system.ruby.network.routers0.throttle1.msg_bytes.Writeback_Control::5       370520                      
system.ruby.network.routers0.throttle1.msg_bytes.Unblock_Control::5       626624                      
system.ruby.network.routers1.throttle0.link_utilization    15.891736                      
system.ruby.network.routers1.throttle0.msg_count.Request_Control::3           53                      
system.ruby.network.routers1.throttle0.msg_count.Response_Data::4        78825                      
system.ruby.network.routers1.throttle0.msg_count.Response_Control::4       548917                      
system.ruby.network.routers1.throttle0.msg_count.Writeback_Control::3        74350                      
system.ruby.network.routers1.throttle0.msg_count.Broadcast_Control::3       549124                      
system.ruby.network.routers1.throttle0.msg_bytes.Request_Control::3          424                      
system.ruby.network.routers1.throttle0.msg_bytes.Response_Data::4      5675400                      
system.ruby.network.routers1.throttle0.msg_bytes.Response_Control::4      4391336                      
system.ruby.network.routers1.throttle0.msg_bytes.Writeback_Control::3       594800                      
system.ruby.network.routers1.throttle0.msg_bytes.Broadcast_Control::3      4392992                      
system.ruby.network.routers1.throttle1.link_utilization     9.289964                      
system.ruby.network.routers1.throttle1.msg_count.Request_Control::2        78828                      
system.ruby.network.routers1.throttle1.msg_count.Response_Data::4         2588                      
system.ruby.network.routers1.throttle1.msg_count.Response_Control::4       546589                      
system.ruby.network.routers1.throttle1.msg_count.Writeback_Data::5        27983                      
system.ruby.network.routers1.throttle1.msg_count.Writeback_Control::2        74350                      
system.ruby.network.routers1.throttle1.msg_count.Writeback_Control::5        46341                      
system.ruby.network.routers1.throttle1.msg_count.Unblock_Control::5        78851                      
system.ruby.network.routers1.throttle1.msg_bytes.Request_Control::2       630624                      
system.ruby.network.routers1.throttle1.msg_bytes.Response_Data::4       186336                      
system.ruby.network.routers1.throttle1.msg_bytes.Response_Control::4      4372712                      
system.ruby.network.routers1.throttle1.msg_bytes.Writeback_Data::5      2014776                      
system.ruby.network.routers1.throttle1.msg_bytes.Writeback_Control::2       594800                      
system.ruby.network.routers1.throttle1.msg_bytes.Writeback_Control::5       370728                      
system.ruby.network.routers1.throttle1.msg_bytes.Unblock_Control::5       630808                      
system.ruby.network.routers2.throttle0.link_utilization    15.854335                      
system.ruby.network.routers2.throttle0.msg_count.Request_Control::3           51                      
system.ruby.network.routers2.throttle0.msg_count.Response_Data::4        78542                      
system.ruby.network.routers2.throttle0.msg_count.Response_Control::4       546974                      
system.ruby.network.routers2.throttle0.msg_count.Writeback_Control::3        74128                      
system.ruby.network.routers2.throttle0.msg_count.Broadcast_Control::3       549406                      
system.ruby.network.routers2.throttle0.msg_bytes.Request_Control::3          408                      
system.ruby.network.routers2.throttle0.msg_bytes.Response_Data::4      5655024                      
system.ruby.network.routers2.throttle0.msg_bytes.Response_Control::4      4375792                      
system.ruby.network.routers2.throttle0.msg_bytes.Writeback_Control::3       593024                      
system.ruby.network.routers2.throttle0.msg_bytes.Broadcast_Control::3      4395248                      
system.ruby.network.routers2.throttle1.link_utilization     9.260762                      
system.ruby.network.routers2.throttle1.msg_count.Request_Control::2        78545                      
system.ruby.network.routers2.throttle1.msg_count.Response_Data::4         2504                      
system.ruby.network.routers2.throttle1.msg_count.Response_Control::4       546953                      
system.ruby.network.routers2.throttle1.msg_count.Writeback_Data::5        27726                      
system.ruby.network.routers2.throttle1.msg_count.Writeback_Control::2        74128                      
system.ruby.network.routers2.throttle1.msg_count.Writeback_Control::5        46381                      
system.ruby.network.routers2.throttle1.msg_count.Unblock_Control::5        78563                      
system.ruby.network.routers2.throttle1.msg_bytes.Request_Control::2       628360                      
system.ruby.network.routers2.throttle1.msg_bytes.Response_Data::4       180288                      
system.ruby.network.routers2.throttle1.msg_bytes.Response_Control::4      4375624                      
system.ruby.network.routers2.throttle1.msg_bytes.Writeback_Data::5      1996272                      
system.ruby.network.routers2.throttle1.msg_bytes.Writeback_Control::2       593024                      
system.ruby.network.routers2.throttle1.msg_bytes.Writeback_Control::5       371048                      
system.ruby.network.routers2.throttle1.msg_bytes.Unblock_Control::5       628504                      
system.ruby.network.routers3.throttle0.link_utilization    15.866275                      
system.ruby.network.routers3.throttle0.msg_count.Request_Control::3           54                      
system.ruby.network.routers3.throttle0.msg_count.Response_Data::4        78635                      
system.ruby.network.routers3.throttle0.msg_count.Response_Control::4       547558                      
system.ruby.network.routers3.throttle0.msg_count.Writeback_Control::3        74201                      
system.ruby.network.routers3.throttle0.msg_count.Broadcast_Control::3       549323                      
system.ruby.network.routers3.throttle0.msg_bytes.Request_Control::3          432                      
system.ruby.network.routers3.throttle0.msg_bytes.Response_Data::4      5661720                      
system.ruby.network.routers3.throttle0.msg_bytes.Response_Control::4      4380464                      
system.ruby.network.routers3.throttle0.msg_bytes.Writeback_Control::3       593608                      
system.ruby.network.routers3.throttle0.msg_bytes.Broadcast_Control::3      4394584                      
system.ruby.network.routers3.throttle1.link_utilization     9.273176                      
system.ruby.network.routers3.throttle1.msg_count.Request_Control::2        78639                      
system.ruby.network.routers3.throttle1.msg_count.Response_Data::4         2621                      
system.ruby.network.routers3.throttle1.msg_count.Response_Control::4       546756                      
system.ruby.network.routers3.throttle1.msg_count.Writeback_Data::5        27761                      
system.ruby.network.routers3.throttle1.msg_count.Writeback_Control::2        74201                      
system.ruby.network.routers3.throttle1.msg_count.Writeback_Control::5        46424                      
system.ruby.network.routers3.throttle1.msg_count.Unblock_Control::5        78652                      
system.ruby.network.routers3.throttle1.msg_bytes.Request_Control::2       629112                      
system.ruby.network.routers3.throttle1.msg_bytes.Response_Data::4       188712                      
system.ruby.network.routers3.throttle1.msg_bytes.Response_Control::4      4374048                      
system.ruby.network.routers3.throttle1.msg_bytes.Writeback_Data::5      1998792                      
system.ruby.network.routers3.throttle1.msg_bytes.Writeback_Control::2       593608                      
system.ruby.network.routers3.throttle1.msg_bytes.Writeback_Control::5       371392                      
system.ruby.network.routers3.throttle1.msg_bytes.Unblock_Control::5       629216                      
system.ruby.network.routers4.throttle0.link_utilization    15.855517                      
system.ruby.network.routers4.throttle0.msg_count.Request_Control::3           57                      
system.ruby.network.routers4.throttle0.msg_count.Response_Data::4        78565                      
system.ruby.network.routers4.throttle0.msg_count.Response_Control::4       547021                      
system.ruby.network.routers4.throttle0.msg_count.Writeback_Control::3        74027                      
system.ruby.network.routers4.throttle0.msg_count.Broadcast_Control::3       549387                      
system.ruby.network.routers4.throttle0.msg_bytes.Request_Control::3          456                      
system.ruby.network.routers4.throttle0.msg_bytes.Response_Data::4      5656680                      
system.ruby.network.routers4.throttle0.msg_bytes.Response_Control::4      4376168                      
system.ruby.network.routers4.throttle0.msg_bytes.Writeback_Control::3       592216                      
system.ruby.network.routers4.throttle0.msg_bytes.Broadcast_Control::3      4395096                      
system.ruby.network.routers4.throttle1.link_utilization     9.262181                      
system.ruby.network.routers4.throttle1.msg_count.Request_Control::2        78569                      
system.ruby.network.routers4.throttle1.msg_count.Response_Data::4         2579                      
system.ruby.network.routers4.throttle1.msg_count.Response_Control::4       546865                      
system.ruby.network.routers4.throttle1.msg_count.Writeback_Data::5        27693                      
system.ruby.network.routers4.throttle1.msg_count.Writeback_Control::2        74027                      
system.ruby.network.routers4.throttle1.msg_count.Writeback_Control::5        46298                      
system.ruby.network.routers4.throttle1.msg_count.Unblock_Control::5        78601                      
system.ruby.network.routers4.throttle1.msg_bytes.Request_Control::2       628552                      
system.ruby.network.routers4.throttle1.msg_bytes.Response_Data::4       185688                      
system.ruby.network.routers4.throttle1.msg_bytes.Response_Control::4      4374920                      
system.ruby.network.routers4.throttle1.msg_bytes.Writeback_Data::5      1993896                      
system.ruby.network.routers4.throttle1.msg_bytes.Writeback_Control::2       592216                      
system.ruby.network.routers4.throttle1.msg_bytes.Writeback_Control::5       370384                      
system.ruby.network.routers4.throttle1.msg_bytes.Unblock_Control::5       628808                      
system.ruby.network.routers5.throttle0.link_utilization    15.860457                      
system.ruby.network.routers5.throttle0.msg_count.Request_Control::3           45                      
system.ruby.network.routers5.throttle0.msg_count.Response_Data::4        78586                      
system.ruby.network.routers5.throttle0.msg_count.Response_Control::4       547290                      
system.ruby.network.routers5.throttle0.msg_count.Writeback_Control::3        74179                      
system.ruby.network.routers5.throttle0.msg_count.Broadcast_Control::3       549374                      
system.ruby.network.routers5.throttle0.msg_bytes.Request_Control::3          360                      
system.ruby.network.routers5.throttle0.msg_bytes.Response_Data::4      5658192                      
system.ruby.network.routers5.throttle0.msg_bytes.Response_Control::4      4378320                      
system.ruby.network.routers5.throttle0.msg_bytes.Writeback_Control::3       593432                      
system.ruby.network.routers5.throttle0.msg_bytes.Broadcast_Control::3      4394992                      
system.ruby.network.routers5.throttle1.link_utilization     9.243400                      
system.ruby.network.routers5.throttle1.msg_count.Request_Control::2        78590                      
system.ruby.network.routers5.throttle1.msg_count.Response_Data::4         2567                      
system.ruby.network.routers5.throttle1.msg_count.Response_Control::4       546851                      
system.ruby.network.routers5.throttle1.msg_count.Writeback_Data::5        27387                      
system.ruby.network.routers5.throttle1.msg_count.Writeback_Control::2        74179                      
system.ruby.network.routers5.throttle1.msg_count.Writeback_Control::5        46760                      
system.ruby.network.routers5.throttle1.msg_count.Unblock_Control::5        78618                      
system.ruby.network.routers5.throttle1.msg_bytes.Request_Control::2       628720                      
system.ruby.network.routers5.throttle1.msg_bytes.Response_Data::4       184824                      
system.ruby.network.routers5.throttle1.msg_bytes.Response_Control::4      4374808                      
system.ruby.network.routers5.throttle1.msg_bytes.Writeback_Data::5      1971864                      
system.ruby.network.routers5.throttle1.msg_bytes.Writeback_Control::2       593432                      
system.ruby.network.routers5.throttle1.msg_bytes.Writeback_Control::5       374080                      
system.ruby.network.routers5.throttle1.msg_bytes.Unblock_Control::5       628944                      
system.ruby.network.routers6.throttle0.link_utilization    15.861031                      
system.ruby.network.routers6.throttle0.msg_count.Request_Control::3           62                      
system.ruby.network.routers6.throttle0.msg_count.Response_Data::4        78597                      
system.ruby.network.routers6.throttle0.msg_count.Response_Control::4       547292                      
system.ruby.network.routers6.throttle0.msg_count.Writeback_Control::3        74144                      
system.ruby.network.routers6.throttle0.msg_count.Broadcast_Control::3       549359                      
system.ruby.network.routers6.throttle0.msg_bytes.Request_Control::3          496                      
system.ruby.network.routers6.throttle0.msg_bytes.Response_Data::4      5658984                      
system.ruby.network.routers6.throttle0.msg_bytes.Response_Control::4      4378336                      
system.ruby.network.routers6.throttle0.msg_bytes.Writeback_Control::3       593152                      
system.ruby.network.routers6.throttle0.msg_bytes.Broadcast_Control::3      4394872                      
system.ruby.network.routers6.throttle1.link_utilization     9.250907                      
system.ruby.network.routers6.throttle1.msg_count.Request_Control::2        78600                      
system.ruby.network.routers6.throttle1.msg_count.Response_Data::4         2589                      
system.ruby.network.routers6.throttle1.msg_count.Response_Control::4       546832                      
system.ruby.network.routers6.throttle1.msg_count.Writeback_Data::5        27482                      
system.ruby.network.routers6.throttle1.msg_count.Writeback_Control::2        74144                      
system.ruby.network.routers6.throttle1.msg_count.Writeback_Control::5        46633                      
system.ruby.network.routers6.throttle1.msg_count.Unblock_Control::5        78625                      
system.ruby.network.routers6.throttle1.msg_bytes.Request_Control::2       628800                      
system.ruby.network.routers6.throttle1.msg_bytes.Response_Data::4       186408                      
system.ruby.network.routers6.throttle1.msg_bytes.Response_Control::4      4374656                      
system.ruby.network.routers6.throttle1.msg_bytes.Writeback_Data::5      1978704                      
system.ruby.network.routers6.throttle1.msg_bytes.Writeback_Control::2       593152                      
system.ruby.network.routers6.throttle1.msg_bytes.Writeback_Control::5       373064                      
system.ruby.network.routers6.throttle1.msg_bytes.Unblock_Control::5       629000                      
system.ruby.network.routers7.throttle0.link_utilization    15.813859                      
system.ruby.network.routers7.throttle0.msg_count.Request_Control::3           42                      
system.ruby.network.routers7.throttle0.msg_count.Response_Data::4        78239                      
system.ruby.network.routers7.throttle0.msg_count.Response_Control::4       544799                      
system.ruby.network.routers7.throttle0.msg_count.Writeback_Control::3        73931                      
system.ruby.network.routers7.throttle0.msg_count.Broadcast_Control::3       549721                      
system.ruby.network.routers7.throttle0.msg_bytes.Request_Control::3          336                      
system.ruby.network.routers7.throttle0.msg_bytes.Response_Data::4      5633208                      
system.ruby.network.routers7.throttle0.msg_bytes.Response_Control::4      4358392                      
system.ruby.network.routers7.throttle0.msg_bytes.Writeback_Control::3       591448                      
system.ruby.network.routers7.throttle0.msg_bytes.Broadcast_Control::3      4397768                      
system.ruby.network.routers7.throttle1.link_utilization     9.270989                      
system.ruby.network.routers7.throttle1.msg_count.Request_Control::2        78243                      
system.ruby.network.routers7.throttle1.msg_count.Response_Data::4         2533                      
system.ruby.network.routers7.throttle1.msg_count.Response_Control::4       547230                      
system.ruby.network.routers7.throttle1.msg_count.Writeback_Data::5        27935                      
system.ruby.network.routers7.throttle1.msg_count.Writeback_Control::2        73931                      
system.ruby.network.routers7.throttle1.msg_count.Writeback_Control::5        45971                      
system.ruby.network.routers7.throttle1.msg_count.Unblock_Control::5        78264                      
system.ruby.network.routers7.throttle1.msg_bytes.Request_Control::2       625944                      
system.ruby.network.routers7.throttle1.msg_bytes.Response_Data::4       182376                      
system.ruby.network.routers7.throttle1.msg_bytes.Response_Control::4      4377840                      
system.ruby.network.routers7.throttle1.msg_bytes.Writeback_Data::5      2011320                      
system.ruby.network.routers7.throttle1.msg_bytes.Writeback_Control::2       591448                      
system.ruby.network.routers7.throttle1.msg_bytes.Writeback_Control::5       367768                      
system.ruby.network.routers7.throttle1.msg_bytes.Unblock_Control::5       626112                      
system.ruby.network.routers8.throttle0.link_utilization    35.596713                      
system.ruby.network.routers8.throttle0.msg_count.Request_Control::2       628329                      
system.ruby.network.routers8.throttle0.msg_count.Writeback_Data::5       221601                      
system.ruby.network.routers8.throttle0.msg_count.Writeback_Control::2       592925                      
system.ruby.network.routers8.throttle0.msg_count.Writeback_Control::5       371123                      
system.ruby.network.routers8.throttle0.msg_count.Unblock_Control::5       628502                      
system.ruby.network.routers8.throttle0.msg_bytes.Request_Control::2      5026632                      
system.ruby.network.routers8.throttle0.msg_bytes.Writeback_Data::5     15955272                      
system.ruby.network.routers8.throttle0.msg_bytes.Writeback_Control::2      4743400                      
system.ruby.network.routers8.throttle0.msg_bytes.Writeback_Control::5      2968984                      
system.ruby.network.routers8.throttle0.msg_bytes.Unblock_Control::5      5028016                      
system.ruby.network.routers8.throttle1.link_utilization    56.501112                      
system.ruby.network.routers8.throttle1.msg_count.Request_Control::3          423                      
system.ruby.network.routers8.throttle1.msg_count.Response_Data::4       607721                      
system.ruby.network.routers8.throttle1.msg_count.Writeback_Control::3       592925                      
system.ruby.network.routers8.throttle1.msg_count.Broadcast_Control::3       627906                      
system.ruby.network.routers8.throttle1.msg_bytes.Request_Control::3         3384                      
system.ruby.network.routers8.throttle1.msg_bytes.Response_Data::4     43755912                      
system.ruby.network.routers8.throttle1.msg_bytes.Writeback_Control::3      4743400                      
system.ruby.network.routers8.throttle1.msg_bytes.Broadcast_Control::3      5023248                      
system.ruby.network.routers9.throttle0.link_utilization    15.823528                      
system.ruby.network.routers9.throttle0.msg_count.Request_Control::3           59                      
system.ruby.network.routers9.throttle0.msg_count.Response_Data::4        78309                      
system.ruby.network.routers9.throttle0.msg_count.Response_Control::4       545336                      
system.ruby.network.routers9.throttle0.msg_count.Writeback_Control::3        73965                      
system.ruby.network.routers9.throttle0.msg_count.Broadcast_Control::3       549648                      
system.ruby.network.routers9.throttle0.msg_bytes.Request_Control::3          472                      
system.ruby.network.routers9.throttle0.msg_bytes.Response_Data::4      5638248                      
system.ruby.network.routers9.throttle0.msg_bytes.Response_Control::4      4362688                      
system.ruby.network.routers9.throttle0.msg_bytes.Writeback_Control::3       591720                      
system.ruby.network.routers9.throttle0.msg_bytes.Broadcast_Control::3      4397184                      
system.ruby.network.routers9.throttle1.link_utilization    15.891761                      
system.ruby.network.routers9.throttle1.msg_count.Request_Control::3           53                      
system.ruby.network.routers9.throttle1.msg_count.Response_Data::4        78825                      
system.ruby.network.routers9.throttle1.msg_count.Response_Control::4       548917                      
system.ruby.network.routers9.throttle1.msg_count.Writeback_Control::3        74350                      
system.ruby.network.routers9.throttle1.msg_count.Broadcast_Control::3       549124                      
system.ruby.network.routers9.throttle1.msg_bytes.Request_Control::3          424                      
system.ruby.network.routers9.throttle1.msg_bytes.Response_Data::4      5675400                      
system.ruby.network.routers9.throttle1.msg_bytes.Response_Control::4      4391336                      
system.ruby.network.routers9.throttle1.msg_bytes.Writeback_Control::3       594800                      
system.ruby.network.routers9.throttle1.msg_bytes.Broadcast_Control::3      4392992                      
system.ruby.network.routers9.throttle2.link_utilization    15.854335                      
system.ruby.network.routers9.throttle2.msg_count.Request_Control::3           51                      
system.ruby.network.routers9.throttle2.msg_count.Response_Data::4        78542                      
system.ruby.network.routers9.throttle2.msg_count.Response_Control::4       546974                      
system.ruby.network.routers9.throttle2.msg_count.Writeback_Control::3        74128                      
system.ruby.network.routers9.throttle2.msg_count.Broadcast_Control::3       549406                      
system.ruby.network.routers9.throttle2.msg_bytes.Request_Control::3          408                      
system.ruby.network.routers9.throttle2.msg_bytes.Response_Data::4      5655024                      
system.ruby.network.routers9.throttle2.msg_bytes.Response_Control::4      4375792                      
system.ruby.network.routers9.throttle2.msg_bytes.Writeback_Control::3       593024                      
system.ruby.network.routers9.throttle2.msg_bytes.Broadcast_Control::3      4395248                      
system.ruby.network.routers9.throttle3.link_utilization    15.866275                      
system.ruby.network.routers9.throttle3.msg_count.Request_Control::3           54                      
system.ruby.network.routers9.throttle3.msg_count.Response_Data::4        78635                      
system.ruby.network.routers9.throttle3.msg_count.Response_Control::4       547558                      
system.ruby.network.routers9.throttle3.msg_count.Writeback_Control::3        74201                      
system.ruby.network.routers9.throttle3.msg_count.Broadcast_Control::3       549323                      
system.ruby.network.routers9.throttle3.msg_bytes.Request_Control::3          432                      
system.ruby.network.routers9.throttle3.msg_bytes.Response_Data::4      5661720                      
system.ruby.network.routers9.throttle3.msg_bytes.Response_Control::4      4380464                      
system.ruby.network.routers9.throttle3.msg_bytes.Writeback_Control::3       593608                      
system.ruby.network.routers9.throttle3.msg_bytes.Broadcast_Control::3      4394584                      
system.ruby.network.routers9.throttle4.link_utilization    15.855517                      
system.ruby.network.routers9.throttle4.msg_count.Request_Control::3           57                      
system.ruby.network.routers9.throttle4.msg_count.Response_Data::4        78565                      
system.ruby.network.routers9.throttle4.msg_count.Response_Control::4       547021                      
system.ruby.network.routers9.throttle4.msg_count.Writeback_Control::3        74027                      
system.ruby.network.routers9.throttle4.msg_count.Broadcast_Control::3       549387                      
system.ruby.network.routers9.throttle4.msg_bytes.Request_Control::3          456                      
system.ruby.network.routers9.throttle4.msg_bytes.Response_Data::4      5656680                      
system.ruby.network.routers9.throttle4.msg_bytes.Response_Control::4      4376168                      
system.ruby.network.routers9.throttle4.msg_bytes.Writeback_Control::3       592216                      
system.ruby.network.routers9.throttle4.msg_bytes.Broadcast_Control::3      4395096                      
system.ruby.network.routers9.throttle5.link_utilization    15.860457                      
system.ruby.network.routers9.throttle5.msg_count.Request_Control::3           45                      
system.ruby.network.routers9.throttle5.msg_count.Response_Data::4        78586                      
system.ruby.network.routers9.throttle5.msg_count.Response_Control::4       547290                      
system.ruby.network.routers9.throttle5.msg_count.Writeback_Control::3        74179                      
system.ruby.network.routers9.throttle5.msg_count.Broadcast_Control::3       549374                      
system.ruby.network.routers9.throttle5.msg_bytes.Request_Control::3          360                      
system.ruby.network.routers9.throttle5.msg_bytes.Response_Data::4      5658192                      
system.ruby.network.routers9.throttle5.msg_bytes.Response_Control::4      4378320                      
system.ruby.network.routers9.throttle5.msg_bytes.Writeback_Control::3       593432                      
system.ruby.network.routers9.throttle5.msg_bytes.Broadcast_Control::3      4394992                      
system.ruby.network.routers9.throttle6.link_utilization    15.861031                      
system.ruby.network.routers9.throttle6.msg_count.Request_Control::3           62                      
system.ruby.network.routers9.throttle6.msg_count.Response_Data::4        78597                      
system.ruby.network.routers9.throttle6.msg_count.Response_Control::4       547292                      
system.ruby.network.routers9.throttle6.msg_count.Writeback_Control::3        74144                      
system.ruby.network.routers9.throttle6.msg_count.Broadcast_Control::3       549359                      
system.ruby.network.routers9.throttle6.msg_bytes.Request_Control::3          496                      
system.ruby.network.routers9.throttle6.msg_bytes.Response_Data::4      5658984                      
system.ruby.network.routers9.throttle6.msg_bytes.Response_Control::4      4378336                      
system.ruby.network.routers9.throttle6.msg_bytes.Writeback_Control::3       593152                      
system.ruby.network.routers9.throttle6.msg_bytes.Broadcast_Control::3      4394872                      
system.ruby.network.routers9.throttle7.link_utilization    15.813859                      
system.ruby.network.routers9.throttle7.msg_count.Request_Control::3           42                      
system.ruby.network.routers9.throttle7.msg_count.Response_Data::4        78239                      
system.ruby.network.routers9.throttle7.msg_count.Response_Control::4       544799                      
system.ruby.network.routers9.throttle7.msg_count.Writeback_Control::3        73931                      
system.ruby.network.routers9.throttle7.msg_count.Broadcast_Control::3       549721                      
system.ruby.network.routers9.throttle7.msg_bytes.Request_Control::3          336                      
system.ruby.network.routers9.throttle7.msg_bytes.Response_Data::4      5633208                      
system.ruby.network.routers9.throttle7.msg_bytes.Response_Control::4      4358392                      
system.ruby.network.routers9.throttle7.msg_bytes.Writeback_Control::3       591448                      
system.ruby.network.routers9.throttle7.msg_bytes.Broadcast_Control::3      4397768                      
system.ruby.network.routers9.throttle8.link_utilization    35.596713                      
system.ruby.network.routers9.throttle8.msg_count.Request_Control::2       628329                      
system.ruby.network.routers9.throttle8.msg_count.Writeback_Data::5       221601                      
system.ruby.network.routers9.throttle8.msg_count.Writeback_Control::2       592925                      
system.ruby.network.routers9.throttle8.msg_count.Writeback_Control::5       371123                      
system.ruby.network.routers9.throttle8.msg_count.Unblock_Control::5       628502                      
system.ruby.network.routers9.throttle8.msg_bytes.Request_Control::2      5026632                      
system.ruby.network.routers9.throttle8.msg_bytes.Writeback_Data::5     15955272                      
system.ruby.network.routers9.throttle8.msg_bytes.Writeback_Control::2      4743400                      
system.ruby.network.routers9.throttle8.msg_bytes.Writeback_Control::5      2968984                      
system.ruby.network.routers9.throttle8.msg_bytes.Unblock_Control::5      5028016                      
system.ruby.LD.latency_hist::bucket_size         1024                      
system.ruby.LD.latency_hist::max_bucket         10239                      
system.ruby.LD.latency_hist::samples           404548                      
system.ruby.LD.latency_hist::mean         1203.834526                      
system.ruby.LD.latency_hist::gmean         822.623780                      
system.ruby.LD.latency_hist::stdev         899.503786                      
system.ruby.LD.latency_hist              |      207765     51.36%     51.36% |      106851     26.41%     77.77% |       81488     20.14%     97.91% |        8228      2.03%     99.95% |         210      0.05%    100.00% |           6      0.00%    100.00% |           0      0.00%    100.00% |           0      0.00%    100.00% |           0      0.00%    100.00% |           0      0.00%    100.00%
system.ruby.LD.latency_hist::total             404548                      
system.ruby.LD.hit_latency_hist::bucket_size          128                      
system.ruby.LD.hit_latency_hist::max_bucket         1279                      
system.ruby.LD.hit_latency_hist::samples          490                      
system.ruby.LD.hit_latency_hist::mean      139.479592                      
system.ruby.LD.hit_latency_hist::gmean      44.536825                      
system.ruby.LD.hit_latency_hist::stdev     171.671956                      
system.ruby.LD.hit_latency_hist          |         282     57.55%     57.55% |         119     24.29%     81.84% |          50     10.20%     92.04% |          20      4.08%     96.12% |           8      1.63%     97.76% |           6      1.22%     98.98% |           1      0.20%     99.18% |           3      0.61%     99.80% |           1      0.20%    100.00% |           0      0.00%    100.00%
system.ruby.LD.hit_latency_hist::total            490                      
system.ruby.LD.miss_latency_hist::bucket_size         1024                      
system.ruby.LD.miss_latency_hist::max_bucket        10239                      
system.ruby.LD.miss_latency_hist::samples       404058                      
system.ruby.LD.miss_latency_hist::mean    1205.125267                      
system.ruby.LD.miss_latency_hist::gmean    825.538095                      
system.ruby.LD.miss_latency_hist::stdev    899.264768                      
system.ruby.LD.miss_latency_hist         |      207276     51.30%     51.30% |      106850     26.44%     77.74% |       81488     20.17%     97.91% |        8228      2.04%     99.95% |         210      0.05%    100.00% |           6      0.00%    100.00% |           0      0.00%    100.00% |           0      0.00%    100.00% |           0      0.00%    100.00% |           0      0.00%    100.00%
system.ruby.LD.miss_latency_hist::total        404058                      
system.ruby.ST.latency_hist::bucket_size         1024                      
system.ruby.ST.latency_hist::max_bucket         10239                      
system.ruby.ST.latency_hist::samples           224507                      
system.ruby.ST.latency_hist::mean         1205.952981                      
system.ruby.ST.latency_hist::gmean         825.731714                      
system.ruby.ST.latency_hist::stdev         898.165229                      
system.ruby.ST.latency_hist              |      114784     51.13%     51.13% |       59883     26.67%     77.80% |       45124     20.10%     97.90% |        4585      2.04%     99.94% |         130      0.06%    100.00% |           1      0.00%    100.00% |           0      0.00%    100.00% |           0      0.00%    100.00% |           0      0.00%    100.00% |           0      0.00%    100.00%
system.ruby.ST.latency_hist::total             224507                      
system.ruby.ST.hit_latency_hist::bucket_size          256                      
system.ruby.ST.hit_latency_hist::max_bucket         2559                      
system.ruby.ST.hit_latency_hist::samples          262                      
system.ruby.ST.hit_latency_hist::mean      141.606870                      
system.ruby.ST.hit_latency_hist::gmean      39.890479                      
system.ruby.ST.hit_latency_hist::stdev     210.424116                      
system.ruby.ST.hit_latency_hist          |         211     80.53%     80.53% |          40     15.27%     95.80% |           6      2.29%     98.09% |           3      1.15%     99.24% |           0      0.00%     99.24% |           1      0.38%     99.62% |           1      0.38%    100.00% |           0      0.00%    100.00% |           0      0.00%    100.00% |           0      0.00%    100.00%
system.ruby.ST.hit_latency_hist::total            262                      
system.ruby.ST.miss_latency_hist::bucket_size         1024                      
system.ruby.ST.miss_latency_hist::max_bucket        10239                      
system.ruby.ST.miss_latency_hist::samples       224245                      
system.ruby.ST.miss_latency_hist::mean    1207.196526                      
system.ruby.ST.miss_latency_hist::gmean    828.660233                      
system.ruby.ST.miss_latency_hist::stdev    897.923524                      
system.ruby.ST.miss_latency_hist         |      114524     51.07%     51.07% |       59881     26.70%     77.77% |       45124     20.12%     97.90% |        4585      2.04%     99.94% |         130      0.06%    100.00% |           1      0.00%    100.00% |           0      0.00%    100.00% |           0      0.00%    100.00% |           0      0.00%    100.00% |           0      0.00%    100.00%
system.ruby.ST.miss_latency_hist::total        224245                      
system.ruby.L1Cache.hit_mach_latency_hist::bucket_size            1                      
system.ruby.L1Cache.hit_mach_latency_hist::max_bucket            9                      
system.ruby.L1Cache.hit_mach_latency_hist::samples          142                      
system.ruby.L1Cache.hit_mach_latency_hist::mean            2                      
system.ruby.L1Cache.hit_mach_latency_hist::gmean            2                      
[...]
system.ruby.L1Cache_Controller.SS.L1_to_L2 |         904     11.52%     11.52% |        1091     13.90%     25.42% |        1010     12.87%     38.29% |        1049     13.37%     51.66% |        1008     12.84%     64.50% |        1028     13.10%     77.60% |         970     12.36%     89.96% |         788     10.04%    100.00%
system.ruby.L1Cache_Controller.SS.L1_to_L2::total         7848                      
system.ruby.L1Cache_Controller.SS.Ack    |        2951     12.08%     12.08% |        3044     12.46%     24.53% |        3159     12.93%     37.46% |        3048     12.47%     49.93% |        3201     13.10%     63.03% |        2889     11.82%     74.86% |        3172     12.98%     87.84% |        2972     12.16%    100.00%
system.ruby.L1Cache_Controller.SS.Ack::total        24436                      
system.ruby.L1Cache_Controller.SS.Shared_Ack |           2      7.41%      7.41% |           3     11.11%     18.52% |           3     11.11%     29.63% |           2      7.41%     37.04% |           2      7.41%     44.44% |           6     22.22%     66.67% |           1      3.70%     70.37% |           8     29.63%    100.00%
system.ruby.L1Cache_Controller.SS.Shared_Ack::total           27                      
system.ruby.L1Cache_Controller.SS.All_acks |        1085     12.05%     12.05% |        1134     12.59%     24.64% |        1163     12.91%     37.55% |        1122     12.46%     50.01% |        1145     12.71%     62.72% |        1121     12.45%     75.16% |        1174     13.03%     88.20% |        1063     11.80%    100.00%
system.ruby.L1Cache_Controller.SS.All_acks::total         9007                      
system.ruby.L1Cache_Controller.SS.All_acks_no_sharers |        1754     12.02%     12.02% |        1856     12.72%     24.74% |        1820     12.47%     37.21% |        1809     12.40%     49.60% |        1905     13.05%     62.66% |        1805     12.37%     75.02% |        1830     12.54%     87.56% |        1815     12.44%    100.00%
system.ruby.L1Cache_Controller.SS.All_acks_no_sharers::total        14594                      
system.ruby.L1Cache_Controller.OI.Load   |           1     33.33%     33.33% |           0      0.00%     33.33% |           1     33.33%     66.67% |           0      0.00%     66.67% |           0      0.00%     66.67% |           1     33.33%    100.00% |           0      0.00%    100.00% |           0      0.00%    100.00%
system.ruby.L1Cache_Controller.OI.Load::total            3                      
system.ruby.L1Cache_Controller.OI.Other_GETX |           1     20.00%     20.00% |           0      0.00%     20.00% |           0      0.00%     20.00% |           1     20.00%     40.00% |           0      0.00%     40.00% |           0      0.00%     40.00% |           1     20.00%     60.00% |           2     40.00%    100.00%
system.ruby.L1Cache_Controller.OI.Other_GETX::total            5                      
system.ruby.L1Cache_Controller.OI.Other_GETS |           1     33.33%     33.33% |           0      0.00%     33.33% |           0      0.00%     33.33% |           0      0.00%     33.33% |           1     33.33%     66.67% |           0      0.00%     66.67% |           1     33.33%    100.00% |           0      0.00%    100.00%
system.ruby.L1Cache_Controller.OI.Other_GETS::total            3                      
system.ruby.L1Cache_Controller.OI.Merged_GETS |           0      0.00%      0.00% |           0      0.00%      0.00% |           0      0.00%      0.00% |           1     50.00%     50.00% |           1     50.00%    100.00% |           0      0.00%    100.00% |           0      0.00%    100.00% |           0      0.00%    100.00%
system.ruby.L1Cache_Controller.OI.Merged_GETS::total            2                      
system.ruby.L1Cache_Controller.OI.Writeback_Ack |        1055     12.45%     12.45% |        1057     12.47%     24.92% |        1035     12.21%     37.14% |        1081     12.76%     49.89% |        1041     12.28%     62.18% |        1043     12.31%     74.49% |        1099     12.97%     87.46% |        1063     12.54%    100.00%
system.ruby.L1Cache_Controller.OI.Writeback_Ack::total         8474                      
system.ruby.L1Cache_Controller.MI.Load   |          14     16.09%     16.09% |          13     14.94%     31.03% |           8      9.20%     40.23% |          11     12.64%     52.87% |          12     13.79%     66.67% |           8      9.20%     75.86% |           9     10.34%     86.21% |          12     13.79%    100.00%
system.ruby.L1Cache_Controller.MI.Load::total           87                      
system.ruby.L1Cache_Controller.MI.Store  |           5     10.20%     10.20% |           8     16.33%     26.53% |           5     10.20%     36.73% |           4      8.16%     44.90% |           7     14.29%     59.18% |          10     20.41%     79.59% |           4      8.16%     87.76% |           6     12.24%    100.00%
system.ruby.L1Cache_Controller.MI.Store::total           49                      
system.ruby.L1Cache_Controller.MI.Other_GETX |          15      7.65%      7.65% |          26     13.27%     20.92% |          21     10.71%     31.63% |          15      7.65%     39.29% |          36     18.37%     57.65% |          32     16.33%     73.98% |          28     14.29%     88.27% |          23     11.73%    100.00%
system.ruby.L1Cache_Controller.MI.Other_GETX::total          196                      
system.ruby.L1Cache_Controller.MI.Other_GETS |          43     10.75%     10.75% |          55     13.75%     24.50% |          44     11.00%     35.50% |          60     15.00%     50.50% |          44     11.00%     61.50% |          48     12.00%     73.50% |          49     12.25%     85.75% |          57     14.25%    100.00%
system.ruby.L1Cache_Controller.MI.Other_GETS::total          400                      
system.ruby.L1Cache_Controller.MI.Merged_GETS |           1     20.00%     20.00% |           1     20.00%     40.00% |           1     20.00%     60.00% |           0      0.00%     60.00% |           0      0.00%     60.00% |           0      0.00%     60.00% |           2     40.00%    100.00% |           0      0.00%    100.00%
system.ruby.L1Cache_Controller.MI.Merged_GETS::total            5                      
system.ruby.L1Cache_Controller.MI.Writeback_Ack |       72894     12.48%     12.48% |       73267     12.54%     25.02% |       73072     12.51%     37.52% |       73104     12.51%     50.04% |       72950     12.49%     62.52% |       73104     12.51%     75.03% |       73016     12.50%     87.53% |       72843     12.47%    100.00%
system.ruby.L1Cache_Controller.MI.Writeback_Ack::total       584250                      
system.ruby.L1Cache_Controller.II.Writeback_Ack |          16      7.96%      7.96% |          26     12.94%     20.90% |          21     10.45%     31.34% |          16      7.96%     39.30% |          36     17.91%     57.21% |          32     15.92%     73.13% |          29     14.43%     87.56% |          25     12.44%    100.00%
system.ruby.L1Cache_Controller.II.Writeback_Ack::total          201                      
system.ruby.L1Cache_Controller.IT.Load   |           0      0.00%      0.00% |           0      0.00%      0.00% |           2     66.67%     66.67% |           1     33.33%    100.00% |           0      0.00%    100.00% |           0      0.00%    100.00% |           0      0.00%    100.00% |           0      0.00%    100.00%
system.ruby.L1Cache_Controller.IT.Load::total            3                      
system.ruby.L1Cache_Controller.IT.L1_to_L2 |           0      0.00%      0.00% |           0      0.00%      0.00% |           2     15.38%     15.38% |           2     15.38%     30.77% |           9     69.23%    100.00% |           0      0.00%    100.00% |           0      0.00%    100.00% |           0      0.00%    100.00%
system.ruby.L1Cache_Controller.IT.L1_to_L2::total           13                      
system.ruby.L1Cache_Controller.IT.Complete_L2_to_L1 |           2     13.33%     13.33% |           1      6.67%     20.00% |           3     20.00%     40.00% |           2     13.33%     53.33% |           2     13.33%     66.67% |           3     20.00%     86.67% |           0      0.00%     86.67% |           2     13.33%    100.00%
system.ruby.L1Cache_Controller.IT.Complete_L2_to_L1::total           15                      
system.ruby.L1Cache_Controller.ST.Load   |           0      0.00%      0.00% |           2     22.22%     22.22% |           1     11.11%     33.33% |           3     33.33%     66.67% |           0      0.00%     66.67% |           1     11.11%     77.78% |           0      0.00%     77.78% |           2     22.22%    100.00%
system.ruby.L1Cache_Controller.ST.Load::total            9                      
system.ruby.L1Cache_Controller.ST.Store  |           0      0.00%      0.00% |           1     25.00%     25.00% |           0      0.00%     25.00% |           0      0.00%     25.00% |           1     25.00%     50.00% |           0      0.00%     50.00% |           2     50.00%    100.00% |           0      0.00%    100.00%
system.ruby.L1Cache_Controller.ST.Store::total            4                      
system.ruby.L1Cache_Controller.ST.L1_to_L2 |           0      0.00%      0.00% |          15     17.24%     17.24% |           1      1.15%     18.39% |          19     21.84%     40.23% |           7      8.05%     48.28% |          14     16.09%     64.37% |          19     21.84%     86.21% |          12     13.79%    100.00%
system.ruby.L1Cache_Controller.ST.L1_to_L2::total           87                      
system.ruby.L1Cache_Controller.ST.Complete_L2_to_L1 |           0      0.00%      0.00% |           3     14.29%     14.29% |           4     19.05%     33.33% |           3     14.29%     47.62% |           3     14.29%     61.90% |           3     14.29%     76.19% |           3     14.29%     90.48% |           2      9.52%    100.00%
system.ruby.L1Cache_Controller.ST.Complete_L2_to_L1::total           21                      
system.ruby.L1Cache_Controller.OT.Load   |           0      0.00%      0.00% |           1    100.00%    100.00% |           0      0.00%    100.00% |           0      0.00%    100.00% |           0      0.00%    100.00% |           0      0.00%    100.00% |           0      0.00%    100.00% |           0      0.00%    100.00%
system.ruby.L1Cache_Controller.OT.Load::total            1                      
system.ruby.L1Cache_Controller.OT.Store  |           2     66.67%     66.67% |           0      0.00%     66.67% |           0      0.00%     66.67% |           1     33.33%    100.00% |           0      0.00%    100.00% |           0      0.00%    100.00% |           0      0.00%    100.00% |           0      0.00%    100.00%
system.ruby.L1Cache_Controller.OT.Store::total            3                      
system.ruby.L1Cache_Controller.OT.L1_to_L2 |           0      0.00%      0.00% |          12    100.00%    100.00% |           0      0.00%    100.00% |           0      0.00%    100.00% |           0      0.00%    100.00% |           0      0.00%    100.00% |           0      0.00%    100.00% |           0      0.00%    100.00%
system.ruby.L1Cache_Controller.OT.L1_to_L2::total           12                      
system.ruby.L1Cache_Controller.OT.Complete_L2_to_L1 |           3     42.86%     42.86% |           2     28.57%     71.43% |           0      0.00%     71.43% |           1     14.29%     85.71% |           0      0.00%     85.71% |           1     14.29%    100.00% |           0      0.00%    100.00% |           0      0.00%    100.00%
system.ruby.L1Cache_Controller.OT.Complete_L2_to_L1::total            7                      
system.ruby.L1Cache_Controller.MT.Load   |          15     13.04%     13.04% |          15     13.04%     26.09% |          15     13.04%     39.13% |          18     15.65%     54.78% |          10      8.70%     63.48% |          19     16.52%     80.00% |          14     12.17%     92.17% |           9      7.83%    100.00%
system.ruby.L1Cache_Controller.MT.Load::total          115                      
system.ruby.L1Cache_Controller.MT.Store  |           9     15.00%     15.00% |          12     20.00%     35.00% |           6     10.00%     45.00% |           5      8.33%     53.33% |           9     15.00%     68.33% |           4      6.67%     75.00% |           5      8.33%     83.33% |          10     16.67%    100.00%
system.ruby.L1Cache_Controller.MT.Store::total           60                      
system.ruby.L1Cache_Controller.MT.L1_to_L2 |         188     13.56%     13.56% |         221     15.95%     29.51% |         164     11.83%     41.34% |         173     12.48%     53.82% |         142     10.25%     64.07% |         170     12.27%     76.33% |         188     13.56%     89.90% |         140     10.10%    100.00%
system.ruby.L1Cache_Controller.MT.L1_to_L2::total         1386                      
system.ruby.L1Cache_Controller.MT.Complete_L2_to_L1 |          52     13.27%     13.27% |          52     13.27%     26.53% |          42     10.71%     37.24% |          45     11.48%     48.72% |          46     11.73%     60.46% |          50     12.76%     73.21% |          49     12.50%     85.71% |          56     14.29%    100.00%
system.ruby.L1Cache_Controller.MT.Complete_L2_to_L1::total          392                      
system.ruby.L1Cache_Controller.MMT.Load  |           9     15.52%     15.52% |           7     12.07%     27.59% |          12     20.69%     48.28% |           6     10.34%     58.62% |           8     13.79%     72.41% |           7     12.07%     84.48% |           6     10.34%     94.83% |           3      5.17%    100.00%
system.ruby.L1Cache_Controller.MMT.Load::total           58                      
system.ruby.L1Cache_Controller.MMT.Store |           5     15.62%     15.62% |           6     18.75%     34.38% |           3      9.38%     43.75% |           7     21.88%     65.62% |           3      9.38%     75.00% |           3      9.38%     84.38% |           2      6.25%     90.62% |           3      9.38%    100.00%
system.ruby.L1Cache_Controller.MMT.Store::total           32                      
system.ruby.L1Cache_Controller.MMT.L1_to_L2 |         176     22.51%     22.51% |          96     12.28%     34.78% |          95     12.15%     46.93% |          80     10.23%     57.16% |          78      9.97%     67.14% |          94     12.02%     79.16% |         107     13.68%     92.84% |          56      7.16%    100.00%
system.ruby.L1Cache_Controller.MMT.L1_to_L2::total          782                      
system.ruby.L1Cache_Controller.MMT.Complete_L2_to_L1 |          28     13.86%     13.86% |          25     12.38%     26.24% |          32     15.84%     42.08% |          24     11.88%     53.96% |          29     14.36%     68.32% |          23     11.39%     79.70% |          21     10.40%     90.10% |          20      9.90%    100.00%
system.ruby.L1Cache_Controller.MMT.Complete_L2_to_L1::total          202                      
system.ruby.Directory_Controller.GETX          227829      0.00%      0.00%
system.ruby.Directory_Controller.GETS          410069      0.00%      0.00%
system.ruby.Directory_Controller.PUT           595805      0.00%      0.00%
system.ruby.Directory_Controller.Unblock          201      0.00%      0.00%
system.ruby.Directory_Controller.UnblockS        23601      0.00%      0.00%
system.ruby.Directory_Controller.UnblockM       604700      0.00%      0.00%
system.ruby.Directory_Controller.Writeback_Clean         8091      0.00%      0.00%
system.ruby.Directory_Controller.Writeback_Dirty          383      0.00%      0.00%
system.ruby.Directory_Controller.Writeback_Exclusive_Clean       363032      0.00%      0.00%
system.ruby.Directory_Controller.Writeback_Exclusive_Dirty       221218      0.00%      0.00%
system.ruby.Directory_Controller.Memory_Data       607721      0.00%      0.00%
system.ruby.Directory_Controller.Memory_Ack       221589      0.00%      0.00%
system.ruby.Directory_Controller.All_Unblocks          423      0.00%      0.00%
system.ruby.Directory_Controller.NX.GETX           74      0.00%      0.00%
system.ruby.Directory_Controller.NX.GETS           87      0.00%      0.00%
system.ruby.Directory_Controller.NX.PUT          8671      0.00%      0.00%
system.ruby.Directory_Controller.NO.GETX         7327      0.00%      0.00%
system.ruby.Directory_Controller.NO.GETS        12671      0.00%      0.00%
system.ruby.Directory_Controller.NO.PUT        584254      0.00%      0.00%
system.ruby.Directory_Controller.O.GETX          8405      0.00%      0.00%
system.ruby.Directory_Controller.O.GETS         14947      0.00%      0.00%
system.ruby.Directory_Controller.E.GETX        208449      0.00%      0.00%
system.ruby.Directory_Controller.E.GETS        375946      0.00%      0.00%
system.ruby.Directory_Controller.NO_B.GETX          243      0.00%      0.00%
system.ruby.Directory_Controller.NO_B.GETS          423      0.00%      0.00%
system.ruby.Directory_Controller.NO_B.PUT         2868      0.00%      0.00%
system.ruby.Directory_Controller.NO_B.UnblockS         8198      0.00%      0.00%
system.ruby.Directory_Controller.NO_B.UnblockM       604069      0.00%      0.00%
system.ruby.Directory_Controller.NO_B_X.PUT            1      0.00%      0.00%
system.ruby.Directory_Controller.NO_B_X.UnblockS           11      0.00%      0.00%
system.ruby.Directory_Controller.NO_B_X.UnblockM          232      0.00%      0.00%
system.ruby.Directory_Controller.NO_B_S.UnblockS           24      0.00%      0.00%
system.ruby.Directory_Controller.NO_B_S.UnblockM          399      0.00%      0.00%
system.ruby.Directory_Controller.NO_B_S_W.PUT           10      0.00%      0.00%
system.ruby.Directory_Controller.NO_B_S_W.UnblockS          423      0.00%      0.00%
system.ruby.Directory_Controller.NO_B_S_W.All_Unblocks          423      0.00%      0.00%
system.ruby.Directory_Controller.O_B.GETX            5      0.00%      0.00%
system.ruby.Directory_Controller.O_B.GETS            5      0.00%      0.00%
system.ruby.Directory_Controller.O_B.UnblockS        14945      0.00%      0.00%
system.ruby.Directory_Controller.NO_B_W.GETX         1903      0.00%      0.00%
system.ruby.Directory_Controller.NO_B_W.GETS         3455      0.00%      0.00%
system.ruby.Directory_Controller.NO_B_W.Memory_Data       592776      0.00%      0.00%
system.ruby.Directory_Controller.O_B_W.GETX           48      0.00%      0.00%
system.ruby.Directory_Controller.O_B_W.GETS           72      0.00%      0.00%
system.ruby.Directory_Controller.O_B_W.Memory_Data        14945      0.00%      0.00%
system.ruby.Directory_Controller.WB.GETX          290      0.00%      0.00%
system.ruby.Directory_Controller.WB.GETS          530      0.00%      0.00%
system.ruby.Directory_Controller.WB.PUT             1      0.00%      0.00%
system.ruby.Directory_Controller.WB.Unblock          201      0.00%      0.00%
system.ruby.Directory_Controller.WB.Writeback_Clean         8091      0.00%      0.00%
system.ruby.Directory_Controller.WB.Writeback_Dirty          383      0.00%      0.00%
system.ruby.Directory_Controller.WB.Writeback_Exclusive_Clean       363032      0.00%      0.00%
system.ruby.Directory_Controller.WB.Writeback_Exclusive_Dirty       221218      0.00%      0.00%
system.ruby.Directory_Controller.WB_O_W.GETX            3      0.00%      0.00%
system.ruby.Directory_Controller.WB_O_W.GETS            2      0.00%      0.00%
system.ruby.Directory_Controller.WB_O_W.Memory_Ack          383      0.00%      0.00%
system.ruby.Directory_Controller.WB_E_W.GETX         1082      0.00%      0.00%
system.ruby.Directory_Controller.WB_E_W.GETS         1931      0.00%      0.00%
system.ruby.Directory_Controller.WB_E_W.Memory_Ack       221206      0.00%      0.00%

---------- End Simulation Statistics   ----------
