gem5 Simulator System.  http://gem5.org
gem5 is copyrighted software; use the --copyright option for details.

gem5 compiled Dec 11 2015 20:23:08
gem5 started Dec 11 2015 20:23:21
gem5 executing on zizzer, pid 55322
command line: build/NULL/gem5.opt -d build/NULL/tests/opt/quick/se/70.tgen/null/none/tgen-dram-ctrl -re /z/atgutier/gem5/gem5/tests/run.py build/NULL/tests/opt/quick/se/70.tgen/null/none/tgen-dram-ctrl

Global frequency set at 1000000000000 ticks per second
info: Entering event queue @ 0.  Starting simulation...
Exiting @ tick 100000000000 because simulate() limit reached
