
---------- Begin Simulation Statistics ----------
host_inst_rate                                  15625                       # Simulator instruction rate (inst/s)
host_mem_usage                                 149968                       # Number of bytes of host memory used
host_seconds                                     0.31                       # Real time elapsed on the host
host_tick_rate                                7799892                       # Simulator tick rate (ticks/s)
sim_freq                                 1000000000000                       # Frequency of simulated ticks
sim_insts                                        4863                       # Number of instructions simulated
sim_seconds                                  0.000002                       # Number of seconds simulated
sim_ticks                                     2431000                       # Number of ticks simulated
system.cpu.idle_fraction                            0                       # Percentage of idle cycles
system.cpu.not_idle_fraction                        1                       # Percentage of non-idle cycles
system.cpu.numCycles                             4863                       # number of cpu cycles simulated
system.cpu.num_insts                             4863                       # Number of instructions executed
system.cpu.num_refs                              1269                       # Number of memory references
system.cpu.workload.PROG:num_syscalls              11                       # Number of system calls

---------- End Simulation Statistics   ----------
