gem5 Simulator System.  http://gem5.org
gem5 is copyrighted software; use the --copyright option for details.

gem5 compiled Jan 23 2012 04:02:00
gem5 started Jan 23 2012 06:24:20
gem5 executing on zizzer
command line: build/SPARC_SE/gem5.opt -d build/SPARC_SE/tests/opt/long/50.vortex/sparc/linux/simple-atomic -re tests/run.py build/SPARC_SE/tests/opt/long/50.vortex/sparc/linux/simple-atomic
Global frequency set at 1000000000000 ticks per second
info: Entering event queue @ 0.  Starting simulation...
info: Increasing stack size by one page.
Exiting @ tick 68148678500 because target called exit()
