
---------- Begin Simulation Statistics ----------
sim_seconds                                  0.000104                       # Number of seconds simulated
sim_ticks                                   104317500                       # Number of ticks simulated
final_tick                                  104317500                       # Number of ticks from beginning of simulation (restored from checkpoints and never reset)
sim_freq                                 1000000000000                       # Frequency of simulated ticks
host_inst_rate                                 132902                       # Simulator instruction rate (inst/s)
host_tick_rate                               13605540                       # Simulator tick rate (ticks/s)
host_mem_usage                                 226920                       # Number of bytes of host memory used
host_seconds                                     7.67                       # Real time elapsed on the host
sim_insts                                     1018993                       # Number of instructions simulated
system.physmem.bytes_read                       41984                       # Number of bytes read from this memory
system.physmem.bytes_inst_read                  28224                       # Number of instructions bytes read from this memory
system.physmem.bytes_written                        0                       # Number of bytes written to this memory
system.physmem.num_reads                          656                       # Number of read requests responded to by this memory
system.physmem.num_writes                           0                       # Number of write requests responded to by this memory
system.physmem.num_other                            0                       # Number of other requests responded to by this memory
system.physmem.bw_read                      402463633                       # Total read bandwidth from this memory (bytes/s)
system.physmem.bw_inst_read                 270558631                       # Instruction read bandwidth from this memory (bytes/s)
system.physmem.bw_total                     402463633                       # Total bandwidth to/from this memory (bytes/s)
system.cpu0.workload.num_syscalls                  89                       # Number of system calls
system.cpu0.numCycles                          208636                       # number of cpu cycles simulated
system.cpu0.numWorkItemsStarted                     0                       # number of work items this cpu started
system.cpu0.numWorkItemsCompleted                   0                       # number of work items this cpu completed
system.cpu0.BPredUnit.lookups                   80640                       # Number of BP lookups
system.cpu0.BPredUnit.condPredicted             78657                       # Number of conditional branches predicted
system.cpu0.BPredUnit.condIncorrect              1043                       # Number of conditional branches incorrect
system.cpu0.BPredUnit.BTBLookups                79781                       # Number of BTB lookups
system.cpu0.BPredUnit.BTBHits                   77332                       # Number of BTB hits
system.cpu0.BPredUnit.BTBCorrect                    0                       # Number of correct BTB predictions (this stat may not work properly.
system.cpu0.BPredUnit.usedRAS                     408                       # Number of times the RAS was used to get a target.
system.cpu0.BPredUnit.RASInCorrect                132                       # Number of incorrect RAS predictions.
system.cpu0.fetch.icacheStallCycles             16565                       # Number of cycles fetch is stalled on an Icache miss
system.cpu0.fetch.Insts                        478922                       # Number of instructions fetch has processed
system.cpu0.fetch.Branches                      80640                       # Number of branches that fetch encountered
system.cpu0.fetch.predictedBranches             77740                       # Number of branches that fetch has predicted taken
system.cpu0.fetch.Cycles                       158137                       # Number of cycles fetch has run and was not squashing or blocked
system.cpu0.fetch.SquashCycles                   3216                       # Number of cycles fetch has spent squashing
system.cpu0.fetch.BlockedCycles                 12889                       # Number of cycles fetch has spent blocked
system.cpu0.fetch.MiscStallCycles                   5                       # Number of cycles fetch has spent waiting on interrupts, or bad addresses, or out of MSHRs
system.cpu0.fetch.PendingTrapStallCycles         1227                       # Number of stall cycles due to pending traps
system.cpu0.fetch.CacheLines                     5515                       # Number of cache lines fetched
system.cpu0.fetch.IcacheSquashes                  447                       # Number of outstanding Icache misses that were squashed
system.cpu0.fetch.rateDist::samples            190846                       # Number of instructions fetched each cycle (Total)
system.cpu0.fetch.rateDist::mean             2.509468                       # Number of instructions fetched each cycle (Total)
system.cpu0.fetch.rateDist::stdev            2.192643                       # Number of instructions fetched each cycle (Total)
system.cpu0.fetch.rateDist::underflows              0      0.00%      0.00% # Number of instructions fetched each cycle (Total)
system.cpu0.fetch.rateDist::0                   32709     17.14%     17.14% # Number of instructions fetched each cycle (Total)
system.cpu0.fetch.rateDist::1                   78517     41.14%     58.28% # Number of instructions fetched each cycle (Total)
system.cpu0.fetch.rateDist::2                     548      0.29%     58.57% # Number of instructions fetched each cycle (Total)
system.cpu0.fetch.rateDist::3                     994      0.52%     59.09% # Number of instructions fetched each cycle (Total)
system.cpu0.fetch.rateDist::4                     666      0.35%     59.44% # Number of instructions fetched each cycle (Total)
system.cpu0.fetch.rateDist::5                   74596     39.09%     98.52% # Number of instructions fetched each cycle (Total)
system.cpu0.fetch.rateDist::6                     801      0.42%     98.94% # Number of instructions fetched each cycle (Total)
system.cpu0.fetch.rateDist::7                     243      0.13%     99.07% # Number of instructions fetched each cycle (Total)
system.cpu0.fetch.rateDist::8                    1772      0.93%    100.00% # Number of instructions fetched each cycle (Total)
system.cpu0.fetch.rateDist::overflows               0      0.00%    100.00% # Number of instructions fetched each cycle (Total)
system.cpu0.fetch.rateDist::min_value               0                       # Number of instructions fetched each cycle (Total)
system.cpu0.fetch.rateDist::max_value               8                       # Number of instructions fetched each cycle (Total)
system.cpu0.fetch.rateDist::total              190846                       # Number of instructions fetched each cycle (Total)
system.cpu0.fetch.branchRate                 0.386510                       # Number of branch fetches per cycle
system.cpu0.fetch.rate                       2.295491                       # Number of inst fetches per cycle
system.cpu0.decode.IdleCycles                   16943                       # Number of cycles decode is idle
system.cpu0.decode.BlockedCycles                14345                       # Number of cycles decode is blocked
system.cpu0.decode.RunCycles                   157232                       # Number of cycles decode is running
system.cpu0.decode.UnblockCycles                  303                       # Number of cycles decode is unblocking
system.cpu0.decode.SquashCycles                  2023                       # Number of cycles decode is squashing
system.cpu0.decode.DecodedInsts                476750                       # Number of instructions handled by decode
system.cpu0.rename.SquashCycles                  2023                       # Number of cycles rename is squashing
system.cpu0.rename.IdleCycles                   17547                       # Number of cycles rename is idle
system.cpu0.rename.BlockCycles                   1397                       # Number of cycles rename is blocking
system.cpu0.rename.serializeStallCycles         12300                       # count of cycles rename stalled for serializing inst
system.cpu0.rename.RunCycles                   156956                       # Number of cycles rename is running
system.cpu0.rename.UnblockCycles                  623                       # Number of cycles rename is unblocking
system.cpu0.rename.RenamedInsts                474177                       # Number of instructions processed by rename
system.cpu0.rename.IQFullEvents                     5                       # Number of times rename has blocked due to IQ full
system.cpu0.rename.LSQFullEvents                  220                       # Number of times rename has blocked due to LSQ full
system.cpu0.rename.RenamedOperands             323986                       # Number of destination operands rename has renamed
system.cpu0.rename.RenameLookups               945682                       # Number of register rename lookups that rename has made
system.cpu0.rename.int_rename_lookups          945682                       # Number of integer rename lookups
system.cpu0.rename.CommittedMaps               313636                       # Number of HB maps that are committed
system.cpu0.rename.UndoneMaps                   10350                       # Number of HB maps that are undone due to squashing
system.cpu0.rename.serializingInsts               803                       # count of serializing insts renamed
system.cpu0.rename.tempSerializingInsts           824                       # count of temporary serializing insts renamed
system.cpu0.rename.skidInsts                     3595                       # count of insts added to the skid buffer
system.cpu0.memDep0.insertedLoads              152097                       # Number of loads inserted to the mem dependence unit.
system.cpu0.memDep0.insertedStores              76745                       # Number of stores inserted to the mem dependence unit.
system.cpu0.memDep0.conflictingLoads            74317                       # Number of conflicting loads.
system.cpu0.memDep0.conflictingStores           74189                       # Number of conflicting stores.
system.cpu0.iq.iqInstsAdded                    396725                       # Number of instructions added to the IQ (excludes non-spec)
system.cpu0.iq.iqNonSpecInstsAdded                846                       # Number of non-speculative instructions added to the IQ
system.cpu0.iq.iqInstsIssued                   395036                       # Number of instructions issued
system.cpu0.iq.iqSquashedInstsIssued               98                       # Number of squashed instructions issued
system.cpu0.iq.iqSquashedInstsExamined           8285                       # Number of squashed instructions iterated over during squash; mainly for profiling
system.cpu0.iq.iqSquashedOperandsExamined         7136                       # Number of squashed operands that are examined and possibly removed from graph
system.cpu0.iq.iqSquashedNonSpecRemoved           287                       # Number of squashed non-spec instructions that were removed
system.cpu0.iq.issued_per_cycle::samples       190846                       # Number of insts issued each cycle
system.cpu0.iq.issued_per_cycle::mean        2.069920                       # Number of insts issued each cycle
system.cpu0.iq.issued_per_cycle::stdev       1.087146                       # Number of insts issued each cycle
system.cpu0.iq.issued_per_cycle::underflows            0      0.00%      0.00% # Number of insts issued each cycle
system.cpu0.iq.issued_per_cycle::0              31787     16.66%     16.66% # Number of insts issued each cycle
system.cpu0.iq.issued_per_cycle::1               5152      2.70%     19.36% # Number of insts issued each cycle
system.cpu0.iq.issued_per_cycle::2              75953     39.80%     59.15% # Number of insts issued each cycle
system.cpu0.iq.issued_per_cycle::3              75299     39.46%     98.61% # Number of insts issued each cycle
system.cpu0.iq.issued_per_cycle::4               1582      0.83%     99.44% # Number of insts issued each cycle
system.cpu0.iq.issued_per_cycle::5                772      0.40%     99.84% # Number of insts issued each cycle
system.cpu0.iq.issued_per_cycle::6                222      0.12%     99.96% # Number of insts issued each cycle
system.cpu0.iq.issued_per_cycle::7                 71      0.04%    100.00% # Number of insts issued each cycle
system.cpu0.iq.issued_per_cycle::8                  8      0.00%    100.00% # Number of insts issued each cycle
system.cpu0.iq.issued_per_cycle::overflows            0      0.00%    100.00% # Number of insts issued each cycle
system.cpu0.iq.issued_per_cycle::min_value            0                       # Number of insts issued each cycle
system.cpu0.iq.issued_per_cycle::max_value            8                       # Number of insts issued each cycle
system.cpu0.iq.issued_per_cycle::total         190846                       # Number of insts issued each cycle
system.cpu0.iq.fu_full::No_OpClass                  0      0.00%      0.00% # attempts to use FU when none available
system.cpu0.iq.fu_full::IntAlu                     35     14.96%     14.96% # attempts to use FU when none available
system.cpu0.iq.fu_full::IntMult                     0      0.00%     14.96% # attempts to use FU when none available
system.cpu0.iq.fu_full::IntDiv                      0      0.00%     14.96% # attempts to use FU when none available
system.cpu0.iq.fu_full::FloatAdd                    0      0.00%     14.96% # attempts to use FU when none available
system.cpu0.iq.fu_full::FloatCmp                    0      0.00%     14.96% # attempts to use FU when none available
system.cpu0.iq.fu_full::FloatCvt                    0      0.00%     14.96% # attempts to use FU when none available
system.cpu0.iq.fu_full::FloatMult                   0      0.00%     14.96% # attempts to use FU when none available
system.cpu0.iq.fu_full::FloatDiv                    0      0.00%     14.96% # attempts to use FU when none available
system.cpu0.iq.fu_full::FloatSqrt                   0      0.00%     14.96% # attempts to use FU when none available
system.cpu0.iq.fu_full::SimdAdd                     0      0.00%     14.96% # attempts to use FU when none available
system.cpu0.iq.fu_full::SimdAddAcc                  0      0.00%     14.96% # attempts to use FU when none available
system.cpu0.iq.fu_full::SimdAlu                     0      0.00%     14.96% # attempts to use FU when none available
system.cpu0.iq.fu_full::SimdCmp                     0      0.00%     14.96% # attempts to use FU when none available
system.cpu0.iq.fu_full::SimdCvt                     0      0.00%     14.96% # attempts to use FU when none available
system.cpu0.iq.fu_full::SimdMisc                    0      0.00%     14.96% # attempts to use FU when none available
system.cpu0.iq.fu_full::SimdMult                    0      0.00%     14.96% # attempts to use FU when none available
system.cpu0.iq.fu_full::SimdMultAcc                 0      0.00%     14.96% # attempts to use FU when none available
system.cpu0.iq.fu_full::SimdShift                   0      0.00%     14.96% # attempts to use FU when none available
system.cpu0.iq.fu_full::SimdShiftAcc                0      0.00%     14.96% # attempts to use FU when none available
system.cpu0.iq.fu_full::SimdSqrt                    0      0.00%     14.96% # attempts to use FU when none available
system.cpu0.iq.fu_full::SimdFloatAdd                0      0.00%     14.96% # attempts to use FU when none available
system.cpu0.iq.fu_full::SimdFloatAlu                0      0.00%     14.96% # attempts to use FU when none available
system.cpu0.iq.fu_full::SimdFloatCmp                0      0.00%     14.96% # attempts to use FU when none available
system.cpu0.iq.fu_full::SimdFloatCvt                0      0.00%     14.96% # attempts to use FU when none available
system.cpu0.iq.fu_full::SimdFloatDiv                0      0.00%     14.96% # attempts to use FU when none available
system.cpu0.iq.fu_full::SimdFloatMisc               0      0.00%     14.96% # attempts to use FU when none available
system.cpu0.iq.fu_full::SimdFloatMult               0      0.00%     14.96% # attempts to use FU when none available
system.cpu0.iq.fu_full::SimdFloatMultAcc            0      0.00%     14.96% # attempts to use FU when none available
system.cpu0.iq.fu_full::SimdFloatSqrt               0      0.00%     14.96% # attempts to use FU when none available
system.cpu0.iq.fu_full::MemRead                    80     34.19%     49.15% # attempts to use FU when none available
system.cpu0.iq.fu_full::MemWrite                  119     50.85%    100.00% # attempts to use FU when none available
system.cpu0.iq.fu_full::IprAccess                   0      0.00%    100.00% # attempts to use FU when none available
system.cpu0.iq.fu_full::InstPrefetch                0      0.00%    100.00% # attempts to use FU when none available
system.cpu0.iq.FU_type_0::No_OpClass                0      0.00%      0.00% # Type of FU issued
system.cpu0.iq.FU_type_0::IntAlu               166893     42.25%     42.25% # Type of FU issued
system.cpu0.iq.FU_type_0::IntMult                   0      0.00%     42.25% # Type of FU issued
system.cpu0.iq.FU_type_0::IntDiv                    0      0.00%     42.25% # Type of FU issued
system.cpu0.iq.FU_type_0::FloatAdd                  0      0.00%     42.25% # Type of FU issued
system.cpu0.iq.FU_type_0::FloatCmp                  0      0.00%     42.25% # Type of FU issued
system.cpu0.iq.FU_type_0::FloatCvt                  0      0.00%     42.25% # Type of FU issued
system.cpu0.iq.FU_type_0::FloatMult                 0      0.00%     42.25% # Type of FU issued
system.cpu0.iq.FU_type_0::FloatDiv                  0      0.00%     42.25% # Type of FU issued
system.cpu0.iq.FU_type_0::FloatSqrt                 0      0.00%     42.25% # Type of FU issued
system.cpu0.iq.FU_type_0::SimdAdd                   0      0.00%     42.25% # Type of FU issued
system.cpu0.iq.FU_type_0::SimdAddAcc                0      0.00%     42.25% # Type of FU issued
system.cpu0.iq.FU_type_0::SimdAlu                   0      0.00%     42.25% # Type of FU issued
system.cpu0.iq.FU_type_0::SimdCmp                   0      0.00%     42.25% # Type of FU issued
system.cpu0.iq.FU_type_0::SimdCvt                   0      0.00%     42.25% # Type of FU issued
system.cpu0.iq.FU_type_0::SimdMisc                  0      0.00%     42.25% # Type of FU issued
system.cpu0.iq.FU_type_0::SimdMult                  0      0.00%     42.25% # Type of FU issued
system.cpu0.iq.FU_type_0::SimdMultAcc               0      0.00%     42.25% # Type of FU issued
system.cpu0.iq.FU_type_0::SimdShift                 0      0.00%     42.25% # Type of FU issued
system.cpu0.iq.FU_type_0::SimdShiftAcc              0      0.00%     42.25% # Type of FU issued
system.cpu0.iq.FU_type_0::SimdSqrt                  0      0.00%     42.25% # Type of FU issued
system.cpu0.iq.FU_type_0::SimdFloatAdd              0      0.00%     42.25% # Type of FU issued
system.cpu0.iq.FU_type_0::SimdFloatAlu              0      0.00%     42.25% # Type of FU issued
system.cpu0.iq.FU_type_0::SimdFloatCmp              0      0.00%     42.25% # Type of FU issued
system.cpu0.iq.FU_type_0::SimdFloatCvt              0      0.00%     42.25% # Type of FU issued
system.cpu0.iq.FU_type_0::SimdFloatDiv              0      0.00%     42.25% # Type of FU issued
system.cpu0.iq.FU_type_0::SimdFloatMisc             0      0.00%     42.25% # Type of FU issued
system.cpu0.iq.FU_type_0::SimdFloatMult             0      0.00%     42.25% # Type of FU issued
system.cpu0.iq.FU_type_0::SimdFloatMultAcc            0      0.00%     42.25% # Type of FU issued
system.cpu0.iq.FU_type_0::SimdFloatSqrt             0      0.00%     42.25% # Type of FU issued
system.cpu0.iq.FU_type_0::MemRead              151805     38.43%     80.68% # Type of FU issued
system.cpu0.iq.FU_type_0::MemWrite              76338     19.32%    100.00% # Type of FU issued
system.cpu0.iq.FU_type_0::IprAccess                 0      0.00%    100.00% # Type of FU issued
system.cpu0.iq.FU_type_0::InstPrefetch              0      0.00%    100.00% # Type of FU issued
system.cpu0.iq.FU_type_0::total                395036                       # Type of FU issued
system.cpu0.iq.rate                          1.893422                       # Inst issue rate
system.cpu0.iq.fu_busy_cnt                        234                       # FU busy when requested
system.cpu0.iq.fu_busy_rate                  0.000592                       # FU busy rate (busy events/executed inst)
system.cpu0.iq.int_inst_queue_reads            981250                       # Number of integer instruction queue reads
system.cpu0.iq.int_inst_queue_writes           405901                       # Number of integer instruction queue writes
system.cpu0.iq.int_inst_queue_wakeup_accesses       393576                       # Number of integer instruction queue wakeup accesses
system.cpu0.iq.fp_inst_queue_reads                  0                       # Number of floating instruction queue reads
system.cpu0.iq.fp_inst_queue_writes                 0                       # Number of floating instruction queue writes
system.cpu0.iq.fp_inst_queue_wakeup_accesses            0                       # Number of floating instruction queue wakeup accesses
system.cpu0.iq.int_alu_accesses                395270                       # Number of integer alu accesses
system.cpu0.iq.fp_alu_accesses                      0                       # Number of floating point alu accesses
system.cpu0.iew.lsq.thread0.forwLoads           73924                       # Number of loads that had data forwarded from stores
system.cpu0.iew.lsq.thread0.invAddrLoads            0                       # Number of loads ignored due to an invalid address
system.cpu0.iew.lsq.thread0.squashedLoads         1695                       # Number of loads squashed
system.cpu0.iew.lsq.thread0.ignoredResponses            3                       # Number of memory responses ignored because the instruction is squashed
system.cpu0.iew.lsq.thread0.memOrderViolation           45                       # Number of memory ordering violations
system.cpu0.iew.lsq.thread0.squashedStores         1038                       # Number of stores squashed
system.cpu0.iew.lsq.thread0.invAddrSwpfs            0                       # Number of software prefetches ignored due to an invalid address
system.cpu0.iew.lsq.thread0.blockedLoads            0                       # Number of blocked loads due to partial load-store forwarding
system.cpu0.iew.lsq.thread0.rescheduledLoads            0                       # Number of loads that were rescheduled
system.cpu0.iew.lsq.thread0.cacheBlocked           18                       # Number of times an access to memory failed due to the cache being blocked
system.cpu0.iew.iewIdleCycles                       0                       # Number of cycles IEW is idle
system.cpu0.iew.iewSquashCycles                  2023                       # Number of cycles IEW is squashing
system.cpu0.iew.iewBlockCycles                   1027                       # Number of cycles IEW is blocking
system.cpu0.iew.iewUnblockCycles                   29                       # Number of cycles IEW is unblocking
system.cpu0.iew.iewDispatchedInsts             472373                       # Number of instructions dispatched to IQ
system.cpu0.iew.iewDispSquashedInsts              357                       # Number of squashed instructions skipped by dispatch
system.cpu0.iew.iewDispLoadInsts               152097                       # Number of dispatched load instructions
system.cpu0.iew.iewDispStoreInsts               76745                       # Number of dispatched store instructions
system.cpu0.iew.iewDispNonSpecInsts               745                       # Number of dispatched non-speculative instructions
system.cpu0.iew.iewIQFullEvents                    27                       # Number of times the IQ has become full, causing a stall
system.cpu0.iew.iewLSQFullEvents                    0                       # Number of times the LSQ has become full, causing a stall
system.cpu0.iew.memOrderViolationEvents            45                       # Number of memory order violations
system.cpu0.iew.predictedTakenIncorrect           467                       # Number of branches that were predicted taken incorrectly
system.cpu0.iew.predictedNotTakenIncorrect          734                       # Number of branches that were predicted not taken incorrectly
system.cpu0.iew.branchMispredicts                1201                       # Number of branch mispredicts detected at execute
system.cpu0.iew.iewExecutedInsts               394155                       # Number of executed instructions
system.cpu0.iew.iewExecLoadInsts               151500                       # Number of load instructions executed
system.cpu0.iew.iewExecSquashedInsts              881                       # Number of squashed instructions skipped in execute
system.cpu0.iew.exec_swp                            0                       # number of swp insts executed
system.cpu0.iew.exec_nop                        74802                       # number of nop insts executed
system.cpu0.iew.exec_refs                      227728                       # number of memory reference insts executed
system.cpu0.iew.exec_branches                   78432                       # Number of branches executed
system.cpu0.iew.exec_stores                     76228                       # Number of stores executed
system.cpu0.iew.exec_rate                    1.889199                       # Inst execution rate
system.cpu0.iew.wb_sent                        393836                       # cumulative count of insts sent to commit
system.cpu0.iew.wb_count                       393576                       # cumulative count of insts written-back
system.cpu0.iew.wb_producers                   233255                       # num instructions producing a value
system.cpu0.iew.wb_consumers                   235364                       # num instructions consuming a value
system.cpu0.iew.wb_penalized                        0                       # number of instrctions required to write to 'other' IQ
system.cpu0.iew.wb_rate                      1.886424                       # insts written-back per cycle
system.cpu0.iew.wb_fanout                    0.991039                       # average fanout of values written-back
system.cpu0.iew.wb_penalized_rate                   0                       # fraction of instructions written-back that wrote to 'other' IQ
system.cpu0.commit.commitCommittedInsts        462799                       # The number of committed instructions
system.cpu0.commit.commitSquashedInsts           9535                       # The number of squashed insts skipped by commit
system.cpu0.commit.commitNonSpecStalls            559                       # The number of times commit has been forced to stall to communicate backwards
system.cpu0.commit.branchMispredicts             1043                       # The number of times a branch was mispredicted
system.cpu0.commit.committed_per_cycle::samples       188840                       # Number of insts commited each cycle
system.cpu0.commit.committed_per_cycle::mean     2.450747                       # Number of insts commited each cycle
system.cpu0.commit.committed_per_cycle::stdev     2.135046                       # Number of insts commited each cycle
system.cpu0.commit.committed_per_cycle::underflows            0      0.00%      0.00% # Number of insts commited each cycle
system.cpu0.commit.committed_per_cycle::0        32333     17.12%     17.12% # Number of insts commited each cycle
system.cpu0.commit.committed_per_cycle::1        78258     41.44%     58.56% # Number of insts commited each cycle
system.cpu0.commit.committed_per_cycle::2         2188      1.16%     59.72% # Number of insts commited each cycle
system.cpu0.commit.committed_per_cycle::3          719      0.38%     60.10% # Number of insts commited each cycle
system.cpu0.commit.committed_per_cycle::4          659      0.35%     60.45% # Number of insts commited each cycle
system.cpu0.commit.committed_per_cycle::5        73614     38.98%     99.43% # Number of insts commited each cycle
system.cpu0.commit.committed_per_cycle::6          485      0.26%     99.69% # Number of insts commited each cycle
system.cpu0.commit.committed_per_cycle::7          280      0.15%     99.84% # Number of insts commited each cycle
system.cpu0.commit.committed_per_cycle::8          304      0.16%    100.00% # Number of insts commited each cycle
system.cpu0.commit.committed_per_cycle::overflows            0      0.00%    100.00% # Number of insts commited each cycle
system.cpu0.commit.committed_per_cycle::min_value            0                       # Number of insts commited each cycle
system.cpu0.commit.committed_per_cycle::max_value            8                       # Number of insts commited each cycle
system.cpu0.commit.committed_per_cycle::total       188840                       # Number of insts commited each cycle
system.cpu0.commit.count                       462799                       # Number of instructions committed
system.cpu0.commit.swp_count                        0                       # Number of s/w prefetches committed
system.cpu0.commit.refs                        226109                       # Number of memory references committed
system.cpu0.commit.loads                       150402                       # Number of loads committed
system.cpu0.commit.membars                         84                       # Number of memory barriers committed
system.cpu0.commit.branches                     77595                       # Number of branches committed
system.cpu0.commit.fp_insts                         0                       # Number of committed floating point instructions.
system.cpu0.commit.int_insts                   311966                       # Number of committed integer instructions.
system.cpu0.commit.function_calls                 223                       # Number of function calls committed.
system.cpu0.commit.bw_lim_events                  304                       # number cycles where commit BW limit reached
system.cpu0.commit.bw_limited                       0                       # number of insts not committed due to BW limits
system.cpu0.rob.rob_reads                      659709                       # The number of ROB reads
system.cpu0.rob.rob_writes                     946703                       # The number of ROB writes
system.cpu0.timesIdled                            320                       # Number of times that the entire CPU went into an idle state and unscheduled itself
system.cpu0.idleCycles                          17790                       # Total number of cycles that the CPU has spent unscheduled due to idling
system.cpu0.committedInsts                     388389                       # Number of Instructions Simulated
system.cpu0.committedInsts_total               388389                       # Number of Instructions Simulated
system.cpu0.cpi                              0.537183                       # CPI: Cycles Per Instruction
system.cpu0.cpi_total                        0.537183                       # CPI: Total CPI of All Threads
system.cpu0.ipc                              1.861563                       # IPC: Instructions Per Cycle
system.cpu0.ipc_total                        1.861563                       # IPC: Total IPC of All Threads
system.cpu0.int_regfile_reads                  705230                       # number of integer regfile reads
system.cpu0.int_regfile_writes                 317935                       # number of integer regfile writes
system.cpu0.fp_regfile_reads                      192                       # number of floating regfile reads
system.cpu0.misc_regfile_reads                 229503                       # number of misc regfile reads
system.cpu0.misc_regfile_writes                   564                       # number of misc regfile writes
system.cpu0.icache.replacements                   294                       # number of replacements
system.cpu0.icache.tagsinuse               244.353680                       # Cycle average of tags in use
system.cpu0.icache.total_refs                    4810                       # Total number of references to valid blocks.
system.cpu0.icache.sampled_refs                   581                       # Sample count of references to valid blocks.
system.cpu0.icache.avg_refs                  8.278830                       # Average number of references to valid blocks.
system.cpu0.icache.warmup_cycle                     0                       # Cycle when the warmup percentage was hit.
system.cpu0.icache.occ_blocks::0           244.353680                       # Average occupied blocks per context
system.cpu0.icache.occ_percent::0            0.477253                       # Average percentage of cache occupancy
system.cpu0.icache.ReadReq_hits                  4810                       # number of ReadReq hits
system.cpu0.icache.demand_hits                   4810                       # number of demand (read+write) hits
system.cpu0.icache.overall_hits                  4810                       # number of overall hits
system.cpu0.icache.ReadReq_misses                 705                       # number of ReadReq misses
system.cpu0.icache.demand_misses                  705                       # number of demand (read+write) misses
system.cpu0.icache.overall_misses                 705                       # number of overall misses
system.cpu0.icache.ReadReq_miss_latency      27622000                       # number of ReadReq miss cycles
system.cpu0.icache.demand_miss_latency       27622000                       # number of demand (read+write) miss cycles
system.cpu0.icache.overall_miss_latency      27622000                       # number of overall miss cycles
system.cpu0.icache.ReadReq_accesses              5515                       # number of ReadReq accesses(hits+misses)
system.cpu0.icache.demand_accesses               5515                       # number of demand (read+write) accesses
system.cpu0.icache.overall_accesses              5515                       # number of overall (read+write) accesses
system.cpu0.icache.ReadReq_miss_rate         0.127833                       # miss rate for ReadReq accesses
system.cpu0.icache.demand_miss_rate          0.127833                       # miss rate for demand accesses
system.cpu0.icache.overall_miss_rate         0.127833                       # miss rate for overall accesses
system.cpu0.icache.ReadReq_avg_miss_latency 39180.141844                       # average ReadReq miss latency
system.cpu0.icache.demand_avg_miss_latency 39180.141844                       # average overall miss latency
system.cpu0.icache.overall_avg_miss_latency 39180.141844                       # average overall miss latency
system.cpu0.icache.blocked_cycles::no_mshrs        15500                       # number of cycles access was blocked
system.cpu0.icache.blocked_cycles::no_targets            0                       # number of cycles access was blocked
system.cpu0.icache.blocked::no_mshrs                1                       # number of cycles access was blocked
system.cpu0.icache.blocked::no_targets              0                       # number of cycles access was blocked
system.cpu0.icache.avg_blocked_cycles::no_mshrs        15500                       # average number of cycles each access was blocked
system.cpu0.icache.avg_blocked_cycles::no_targets     no_value                       # average number of cycles each access was blocked
system.cpu0.icache.fast_writes                      0                       # number of fast writes performed
system.cpu0.icache.cache_copies                     0                       # number of cache copies performed
system.cpu0.icache.writebacks                       0                       # number of writebacks
system.cpu0.icache.ReadReq_mshr_hits              123                       # number of ReadReq MSHR hits
system.cpu0.icache.demand_mshr_hits               123                       # number of demand (read+write) MSHR hits
system.cpu0.icache.overall_mshr_hits              123                       # number of overall MSHR hits
system.cpu0.icache.ReadReq_mshr_misses            582                       # number of ReadReq MSHR misses
system.cpu0.icache.demand_mshr_misses             582                       # number of demand (read+write) MSHR misses
system.cpu0.icache.overall_mshr_misses            582                       # number of overall MSHR misses
system.cpu0.icache.overall_mshr_uncacheable_misses            0                       # number of overall MSHR uncacheable misses
system.cpu0.icache.ReadReq_mshr_miss_latency     21369000                       # number of ReadReq MSHR miss cycles
system.cpu0.icache.demand_mshr_miss_latency     21369000                       # number of demand (read+write) MSHR miss cycles
system.cpu0.icache.overall_mshr_miss_latency     21369000                       # number of overall MSHR miss cycles
system.cpu0.icache.overall_mshr_uncacheable_latency            0                       # number of overall MSHR uncacheable cycles
system.cpu0.icache.ReadReq_mshr_miss_rate     0.105530                       # mshr miss rate for ReadReq accesses
system.cpu0.icache.demand_mshr_miss_rate     0.105530                       # mshr miss rate for demand accesses
system.cpu0.icache.overall_mshr_miss_rate     0.105530                       # mshr miss rate for overall accesses
system.cpu0.icache.ReadReq_avg_mshr_miss_latency 36716.494845                       # average ReadReq mshr miss latency
system.cpu0.icache.demand_avg_mshr_miss_latency 36716.494845                       # average overall mshr miss latency
system.cpu0.icache.overall_avg_mshr_miss_latency 36716.494845                       # average overall mshr miss latency
system.cpu0.icache.overall_avg_mshr_uncacheable_latency     no_value                       # average overall mshr uncacheable latency
system.cpu0.icache.mshr_cap_events                  0                       # number of times MSHR cap was activated
system.cpu0.icache.soft_prefetch_mshr_full            0                       # number of mshr full events for SW prefetching instrutions
system.cpu0.icache.no_allocate_misses               0                       # Number of misses that were no-allocate
system.cpu0.dcache.replacements                     9                       # number of replacements
system.cpu0.dcache.tagsinuse               138.901719                       # Cycle average of tags in use
system.cpu0.dcache.total_refs                   97328                       # Total number of references to valid blocks.
system.cpu0.dcache.sampled_refs                   174                       # Sample count of references to valid blocks.
system.cpu0.dcache.avg_refs                559.356322                       # Average number of references to valid blocks.
system.cpu0.dcache.warmup_cycle                     0                       # Cycle when the warmup percentage was hit.
system.cpu0.dcache.occ_blocks::0           140.432794                       # Average occupied blocks per context
system.cpu0.dcache.occ_blocks::1            -1.531076                       # Average occupied blocks per context
system.cpu0.dcache.occ_percent::0            0.274283                       # Average percentage of cache occupancy
system.cpu0.dcache.occ_percent::1           -0.002990                       # Average percentage of cache occupancy
system.cpu0.dcache.ReadReq_hits                 77005                       # number of ReadReq hits
system.cpu0.dcache.WriteReq_hits                75125                       # number of WriteReq hits
system.cpu0.dcache.SwapReq_hits                    23                       # number of SwapReq hits
system.cpu0.dcache.demand_hits                 152130                       # number of demand (read+write) hits
system.cpu0.dcache.overall_hits                152130                       # number of overall hits
system.cpu0.dcache.ReadReq_misses                 517                       # number of ReadReq misses
system.cpu0.dcache.WriteReq_misses                540                       # number of WriteReq misses
system.cpu0.dcache.SwapReq_misses                  19                       # number of SwapReq misses
system.cpu0.dcache.demand_misses                 1057                       # number of demand (read+write) misses
system.cpu0.dcache.overall_misses                1057                       # number of overall misses
system.cpu0.dcache.ReadReq_miss_latency      14734500                       # number of ReadReq miss cycles
system.cpu0.dcache.WriteReq_miss_latency     24692984                       # number of WriteReq miss cycles
system.cpu0.dcache.SwapReq_miss_latency        371000                       # number of SwapReq miss cycles
system.cpu0.dcache.demand_miss_latency       39427484                       # number of demand (read+write) miss cycles
system.cpu0.dcache.overall_miss_latency      39427484                       # number of overall miss cycles
system.cpu0.dcache.ReadReq_accesses             77522                       # number of ReadReq accesses(hits+misses)
system.cpu0.dcache.WriteReq_accesses            75665                       # number of WriteReq accesses(hits+misses)
system.cpu0.dcache.SwapReq_accesses                42                       # number of SwapReq accesses(hits+misses)
system.cpu0.dcache.demand_accesses             153187                       # number of demand (read+write) accesses
system.cpu0.dcache.overall_accesses            153187                       # number of overall (read+write) accesses
system.cpu0.dcache.ReadReq_miss_rate         0.006669                       # miss rate for ReadReq accesses
system.cpu0.dcache.WriteReq_miss_rate        0.007137                       # miss rate for WriteReq accesses
system.cpu0.dcache.SwapReq_miss_rate         0.452381                       # miss rate for SwapReq accesses
system.cpu0.dcache.demand_miss_rate          0.006900                       # miss rate for demand accesses
system.cpu0.dcache.overall_miss_rate         0.006900                       # miss rate for overall accesses
system.cpu0.dcache.ReadReq_avg_miss_latency        28500                       # average ReadReq miss latency
system.cpu0.dcache.WriteReq_avg_miss_latency 45727.748148                       # average WriteReq miss latency
system.cpu0.dcache.SwapReq_avg_miss_latency 19526.315789                       # average SwapReq miss latency
system.cpu0.dcache.demand_avg_miss_latency 37301.309366                       # average overall miss latency
system.cpu0.dcache.overall_avg_miss_latency 37301.309366                       # average overall miss latency
system.cpu0.dcache.blocked_cycles::no_mshrs       180500                       # number of cycles access was blocked
system.cpu0.dcache.blocked_cycles::no_targets            0                       # number of cycles access was blocked
system.cpu0.dcache.blocked::no_mshrs               21                       # number of cycles access was blocked
system.cpu0.dcache.blocked::no_targets              0                       # number of cycles access was blocked
system.cpu0.dcache.avg_blocked_cycles::no_mshrs  8595.238095                       # average number of cycles each access was blocked
system.cpu0.dcache.avg_blocked_cycles::no_targets     no_value                       # average number of cycles each access was blocked
system.cpu0.dcache.fast_writes                      0                       # number of fast writes performed
system.cpu0.dcache.cache_copies                     0                       # number of cache copies performed
system.cpu0.dcache.writebacks                       6                       # number of writebacks
system.cpu0.dcache.ReadReq_mshr_hits              327                       # number of ReadReq MSHR hits
system.cpu0.dcache.WriteReq_mshr_hits             368                       # number of WriteReq MSHR hits
system.cpu0.dcache.demand_mshr_hits               695                       # number of demand (read+write) MSHR hits
system.cpu0.dcache.overall_mshr_hits              695                       # number of overall MSHR hits
system.cpu0.dcache.ReadReq_mshr_misses            190                       # number of ReadReq MSHR misses
system.cpu0.dcache.WriteReq_mshr_misses           172                       # number of WriteReq MSHR misses
system.cpu0.dcache.SwapReq_mshr_misses             19                       # number of SwapReq MSHR misses
system.cpu0.dcache.demand_mshr_misses             362                       # number of demand (read+write) MSHR misses
system.cpu0.dcache.overall_mshr_misses            362                       # number of overall MSHR misses
system.cpu0.dcache.overall_mshr_uncacheable_misses            0                       # number of overall MSHR uncacheable misses
system.cpu0.dcache.ReadReq_mshr_miss_latency      5255000                       # number of ReadReq MSHR miss cycles
system.cpu0.dcache.WriteReq_mshr_miss_latency      6251500                       # number of WriteReq MSHR miss cycles
system.cpu0.dcache.SwapReq_mshr_miss_latency       314000                       # number of SwapReq MSHR miss cycles
system.cpu0.dcache.demand_mshr_miss_latency     11506500                       # number of demand (read+write) MSHR miss cycles
system.cpu0.dcache.overall_mshr_miss_latency     11506500                       # number of overall MSHR miss cycles
system.cpu0.dcache.overall_mshr_uncacheable_latency            0                       # number of overall MSHR uncacheable cycles
system.cpu0.dcache.ReadReq_mshr_miss_rate     0.002451                       # mshr miss rate for ReadReq accesses
system.cpu0.dcache.WriteReq_mshr_miss_rate     0.002273                       # mshr miss rate for WriteReq accesses
system.cpu0.dcache.SwapReq_mshr_miss_rate     0.452381                       # mshr miss rate for SwapReq accesses
system.cpu0.dcache.demand_mshr_miss_rate     0.002363                       # mshr miss rate for demand accesses
system.cpu0.dcache.overall_mshr_miss_rate     0.002363                       # mshr miss rate for overall accesses
system.cpu0.dcache.ReadReq_avg_mshr_miss_latency 27657.894737                       # average ReadReq mshr miss latency
system.cpu0.dcache.WriteReq_avg_mshr_miss_latency 36345.930233                       # average WriteReq mshr miss latency
system.cpu0.dcache.SwapReq_avg_mshr_miss_latency 16526.315789                       # average SwapReq mshr miss latency
system.cpu0.dcache.demand_avg_mshr_miss_latency 31785.911602                       # average overall mshr miss latency
system.cpu0.dcache.overall_avg_mshr_miss_latency 31785.911602                       # average overall mshr miss latency
system.cpu0.dcache.overall_avg_mshr_uncacheable_latency     no_value                       # average overall mshr uncacheable latency
system.cpu0.dcache.mshr_cap_events                  0                       # number of times MSHR cap was activated
system.cpu0.dcache.soft_prefetch_mshr_full            0                       # number of mshr full events for SW prefetching instrutions
system.cpu0.dcache.no_allocate_misses               0                       # Number of misses that were no-allocate
system.cpu1.numCycles                          174305                       # number of cpu cycles simulated
system.cpu1.numWorkItemsStarted                     0                       # number of work items this cpu started
system.cpu1.numWorkItemsCompleted                   0                       # number of work items this cpu completed
system.cpu1.BPredUnit.lookups                   52112                       # Number of BP lookups
system.cpu1.BPredUnit.condPredicted             49475                       # Number of conditional branches predicted
system.cpu1.BPredUnit.condIncorrect              1085                       # Number of conditional branches incorrect
system.cpu1.BPredUnit.BTBLookups                48064                       # Number of BTB lookups
system.cpu1.BPredUnit.BTBHits                   46080                       # Number of BTB hits
system.cpu1.BPredUnit.BTBCorrect                    0                       # Number of correct BTB predictions (this stat may not work properly.
system.cpu1.BPredUnit.usedRAS                     697                       # Number of times the RAS was used to get a target.
system.cpu1.BPredUnit.RASInCorrect                232                       # Number of incorrect RAS predictions.
system.cpu1.fetch.icacheStallCycles             26834                       # Number of cycles fetch is stalled on an Icache miss
system.cpu1.fetch.Insts                        291745                       # Number of instructions fetch has processed
system.cpu1.fetch.Branches                      52112                       # Number of branches that fetch encountered
system.cpu1.fetch.predictedBranches             46777                       # Number of branches that fetch has predicted taken
system.cpu1.fetch.Cycles                       102740                       # Number of cycles fetch has run and was not squashing or blocked
system.cpu1.fetch.SquashCycles                   3160                       # Number of cycles fetch has spent squashing
system.cpu1.fetch.BlockedCycles                 32953                       # Number of cycles fetch has spent blocked
system.cpu1.fetch.MiscStallCycles                   5                       # Number of cycles fetch has spent waiting on interrupts, or bad addresses, or out of MSHRs
system.cpu1.fetch.NoActiveThreadStallCycles         6397                       # Number of stall cycles due to no active thread to fetch from
system.cpu1.fetch.PendingTrapStallCycles          670                       # Number of stall cycles due to pending traps
system.cpu1.fetch.CacheLines                    18341                       # Number of cache lines fetched
system.cpu1.fetch.IcacheSquashes                  181                       # Number of outstanding Icache misses that were squashed
system.cpu1.fetch.rateDist::samples            171598                       # Number of instructions fetched each cycle (Total)
system.cpu1.fetch.rateDist::mean             1.700166                       # Number of instructions fetched each cycle (Total)
system.cpu1.fetch.rateDist::stdev            2.136223                       # Number of instructions fetched each cycle (Total)
system.cpu1.fetch.rateDist::underflows              0      0.00%      0.00% # Number of instructions fetched each cycle (Total)
system.cpu1.fetch.rateDist::0                   68858     40.13%     40.13% # Number of instructions fetched each cycle (Total)
system.cpu1.fetch.rateDist::1                   52177     30.41%     70.53% # Number of instructions fetched each cycle (Total)
system.cpu1.fetch.rateDist::2                    5705      3.32%     73.86% # Number of instructions fetched each cycle (Total)
system.cpu1.fetch.rateDist::3                    3354      1.95%     75.81% # Number of instructions fetched each cycle (Total)
system.cpu1.fetch.rateDist::4                     589      0.34%     76.16% # Number of instructions fetched each cycle (Total)
system.cpu1.fetch.rateDist::5                   36153     21.07%     97.22% # Number of instructions fetched each cycle (Total)
system.cpu1.fetch.rateDist::6                    1352      0.79%     98.01% # Number of instructions fetched each cycle (Total)
system.cpu1.fetch.rateDist::7                     417      0.24%     98.26% # Number of instructions fetched each cycle (Total)
system.cpu1.fetch.rateDist::8                    2993      1.74%    100.00% # Number of instructions fetched each cycle (Total)
system.cpu1.fetch.rateDist::overflows               0      0.00%    100.00% # Number of instructions fetched each cycle (Total)
system.cpu1.fetch.rateDist::min_value               0                       # Number of instructions fetched each cycle (Total)
system.cpu1.fetch.rateDist::max_value               8                       # Number of instructions fetched each cycle (Total)
system.cpu1.fetch.rateDist::total              171598                       # Number of instructions fetched each cycle (Total)
system.cpu1.fetch.branchRate                 0.298970                       # Number of branch fetches per cycle
system.cpu1.fetch.rate                       1.673762                       # Number of inst fetches per cycle
system.cpu1.decode.IdleCycles                   31662                       # Number of cycles decode is idle
system.cpu1.decode.BlockedCycles                29517                       # Number of cycles decode is blocked
system.cpu1.decode.RunCycles                    97194                       # Number of cycles decode is running
system.cpu1.decode.UnblockCycles                 4829                       # Number of cycles decode is unblocking
system.cpu1.decode.SquashCycles                  1999                       # Number of cycles decode is squashing
system.cpu1.decode.DecodedInsts                288983                       # Number of instructions handled by decode
system.cpu1.rename.SquashCycles                  1999                       # Number of cycles rename is squashing
system.cpu1.rename.IdleCycles                   32299                       # Number of cycles rename is idle
system.cpu1.rename.BlockCycles                  14957                       # Number of cycles rename is blocking
system.cpu1.rename.serializeStallCycles         13738                       # count of cycles rename stalled for serializing inst
system.cpu1.rename.RunCycles                    92834                       # Number of cycles rename is running
system.cpu1.rename.UnblockCycles                 9374                       # Number of cycles rename is unblocking
system.cpu1.rename.RenamedInsts                287085                       # Number of instructions processed by rename
system.cpu1.rename.IQFullEvents                    26                       # Number of times rename has blocked due to IQ full
system.cpu1.rename.LSQFullEvents                   60                       # Number of times rename has blocked due to LSQ full
system.cpu1.rename.RenamedOperands             200836                       # Number of destination operands rename has renamed
system.cpu1.rename.RenameLookups               551958                       # Number of register rename lookups that rename has made
system.cpu1.rename.int_rename_lookups          551958                       # Number of integer rename lookups
system.cpu1.rename.CommittedMaps               191192                       # Number of HB maps that are committed
system.cpu1.rename.UndoneMaps                    9644                       # Number of HB maps that are undone due to squashing
system.cpu1.rename.serializingInsts              1080                       # count of serializing insts renamed
system.cpu1.rename.tempSerializingInsts          1209                       # count of temporary serializing insts renamed
system.cpu1.rename.skidInsts                    11997                       # count of insts added to the skid buffer
system.cpu1.memDep0.insertedLoads               82183                       # Number of loads inserted to the mem dependence unit.
system.cpu1.memDep0.insertedStores              38955                       # Number of stores inserted to the mem dependence unit.
system.cpu1.memDep0.conflictingLoads            39306                       # Number of conflicting loads.
system.cpu1.memDep0.conflictingStores           34408                       # Number of conflicting stores.
system.cpu1.iq.iqInstsAdded                    238857                       # Number of instructions added to the IQ (excludes non-spec)
system.cpu1.iq.iqNonSpecInstsAdded               6064                       # Number of non-speculative instructions added to the IQ
system.cpu1.iq.iqInstsIssued                   241490                       # Number of instructions issued
system.cpu1.iq.iqSquashedInstsIssued                3                       # Number of squashed instructions issued
system.cpu1.iq.iqSquashedInstsExamined           8361                       # Number of squashed instructions iterated over during squash; mainly for profiling
system.cpu1.iq.iqSquashedOperandsExamined         7490                       # Number of squashed operands that are examined and possibly removed from graph
system.cpu1.iq.iqSquashedNonSpecRemoved           637                       # Number of squashed non-spec instructions that were removed
system.cpu1.iq.issued_per_cycle::samples       171598                       # Number of insts issued each cycle
system.cpu1.iq.issued_per_cycle::mean        1.407301                       # Number of insts issued each cycle
system.cpu1.iq.issued_per_cycle::stdev       1.310079                       # Number of insts issued each cycle
system.cpu1.iq.issued_per_cycle::underflows            0      0.00%      0.00% # Number of insts issued each cycle
system.cpu1.iq.issued_per_cycle::0              65840     38.37%     38.37% # Number of insts issued each cycle
system.cpu1.iq.issued_per_cycle::1              21732     12.66%     51.03% # Number of insts issued each cycle
system.cpu1.iq.issued_per_cycle::2              38892     22.66%     73.70% # Number of insts issued each cycle
system.cpu1.iq.issued_per_cycle::3              40381     23.53%     97.23% # Number of insts issued each cycle
system.cpu1.iq.issued_per_cycle::4               3339      1.95%     99.18% # Number of insts issued each cycle
system.cpu1.iq.issued_per_cycle::5               1157      0.67%     99.85% # Number of insts issued each cycle
system.cpu1.iq.issued_per_cycle::6                163      0.09%     99.95% # Number of insts issued each cycle
system.cpu1.iq.issued_per_cycle::7                 40      0.02%     99.97% # Number of insts issued each cycle
system.cpu1.iq.issued_per_cycle::8                 54      0.03%    100.00% # Number of insts issued each cycle
system.cpu1.iq.issued_per_cycle::overflows            0      0.00%    100.00% # Number of insts issued each cycle
system.cpu1.iq.issued_per_cycle::min_value            0                       # Number of insts issued each cycle
system.cpu1.iq.issued_per_cycle::max_value            8                       # Number of insts issued each cycle
system.cpu1.iq.issued_per_cycle::total         171598                       # Number of insts issued each cycle
system.cpu1.iq.fu_full::No_OpClass                  0      0.00%      0.00% # attempts to use FU when none available
system.cpu1.iq.fu_full::IntAlu                     12      4.55%      4.55% # attempts to use FU when none available
system.cpu1.iq.fu_full::IntMult                     0      0.00%      4.55% # attempts to use FU when none available
system.cpu1.iq.fu_full::IntDiv                      0      0.00%      4.55% # attempts to use FU when none available
system.cpu1.iq.fu_full::FloatAdd                    0      0.00%      4.55% # attempts to use FU when none available
system.cpu1.iq.fu_full::FloatCmp                    0      0.00%      4.55% # attempts to use FU when none available
system.cpu1.iq.fu_full::FloatCvt                    0      0.00%      4.55% # attempts to use FU when none available
system.cpu1.iq.fu_full::FloatMult                   0      0.00%      4.55% # attempts to use FU when none available
system.cpu1.iq.fu_full::FloatDiv                    0      0.00%      4.55% # attempts to use FU when none available
system.cpu1.iq.fu_full::FloatSqrt                   0      0.00%      4.55% # attempts to use FU when none available
system.cpu1.iq.fu_full::SimdAdd                     0      0.00%      4.55% # attempts to use FU when none available
system.cpu1.iq.fu_full::SimdAddAcc                  0      0.00%      4.55% # attempts to use FU when none available
system.cpu1.iq.fu_full::SimdAlu                     0      0.00%      4.55% # attempts to use FU when none available
system.cpu1.iq.fu_full::SimdCmp                     0      0.00%      4.55% # attempts to use FU when none available
system.cpu1.iq.fu_full::SimdCvt                     0      0.00%      4.55% # attempts to use FU when none available
system.cpu1.iq.fu_full::SimdMisc                    0      0.00%      4.55% # attempts to use FU when none available
system.cpu1.iq.fu_full::SimdMult                    0      0.00%      4.55% # attempts to use FU when none available
system.cpu1.iq.fu_full::SimdMultAcc                 0      0.00%      4.55% # attempts to use FU when none available
system.cpu1.iq.fu_full::SimdShift                   0      0.00%      4.55% # attempts to use FU when none available
system.cpu1.iq.fu_full::SimdShiftAcc                0      0.00%      4.55% # attempts to use FU when none available
system.cpu1.iq.fu_full::SimdSqrt                    0      0.00%      4.55% # attempts to use FU when none available
system.cpu1.iq.fu_full::SimdFloatAdd                0      0.00%      4.55% # attempts to use FU when none available
system.cpu1.iq.fu_full::SimdFloatAlu                0      0.00%      4.55% # attempts to use FU when none available
system.cpu1.iq.fu_full::SimdFloatCmp                0      0.00%      4.55% # attempts to use FU when none available
system.cpu1.iq.fu_full::SimdFloatCvt                0      0.00%      4.55% # attempts to use FU when none available
system.cpu1.iq.fu_full::SimdFloatDiv                0      0.00%      4.55% # attempts to use FU when none available
system.cpu1.iq.fu_full::SimdFloatMisc               0      0.00%      4.55% # attempts to use FU when none available
system.cpu1.iq.fu_full::SimdFloatMult               0      0.00%      4.55% # attempts to use FU when none available
system.cpu1.iq.fu_full::SimdFloatMultAcc            0      0.00%      4.55% # attempts to use FU when none available
system.cpu1.iq.fu_full::SimdFloatSqrt               0      0.00%      4.55% # attempts to use FU when none available
system.cpu1.iq.fu_full::MemRead                    62     23.48%     28.03% # attempts to use FU when none available
system.cpu1.iq.fu_full::MemWrite                  190     71.97%    100.00% # attempts to use FU when none available
system.cpu1.iq.fu_full::IprAccess                   0      0.00%    100.00% # attempts to use FU when none available
system.cpu1.iq.fu_full::InstPrefetch                0      0.00%    100.00% # attempts to use FU when none available
system.cpu1.iq.FU_type_0::No_OpClass                0      0.00%      0.00% # Type of FU issued
system.cpu1.iq.FU_type_0::IntAlu               116592     48.28%     48.28% # Type of FU issued
system.cpu1.iq.FU_type_0::IntMult                   0      0.00%     48.28% # Type of FU issued
system.cpu1.iq.FU_type_0::IntDiv                    0      0.00%     48.28% # Type of FU issued
system.cpu1.iq.FU_type_0::FloatAdd                  0      0.00%     48.28% # Type of FU issued
system.cpu1.iq.FU_type_0::FloatCmp                  0      0.00%     48.28% # Type of FU issued
system.cpu1.iq.FU_type_0::FloatCvt                  0      0.00%     48.28% # Type of FU issued
system.cpu1.iq.FU_type_0::FloatMult                 0      0.00%     48.28% # Type of FU issued
system.cpu1.iq.FU_type_0::FloatDiv                  0      0.00%     48.28% # Type of FU issued
system.cpu1.iq.FU_type_0::FloatSqrt                 0      0.00%     48.28% # Type of FU issued
system.cpu1.iq.FU_type_0::SimdAdd                   0      0.00%     48.28% # Type of FU issued
system.cpu1.iq.FU_type_0::SimdAddAcc                0      0.00%     48.28% # Type of FU issued
system.cpu1.iq.FU_type_0::SimdAlu                   0      0.00%     48.28% # Type of FU issued
system.cpu1.iq.FU_type_0::SimdCmp                   0      0.00%     48.28% # Type of FU issued
system.cpu1.iq.FU_type_0::SimdCvt                   0      0.00%     48.28% # Type of FU issued
system.cpu1.iq.FU_type_0::SimdMisc                  0      0.00%     48.28% # Type of FU issued
system.cpu1.iq.FU_type_0::SimdMult                  0      0.00%     48.28% # Type of FU issued
system.cpu1.iq.FU_type_0::SimdMultAcc               0      0.00%     48.28% # Type of FU issued
system.cpu1.iq.FU_type_0::SimdShift                 0      0.00%     48.28% # Type of FU issued
system.cpu1.iq.FU_type_0::SimdShiftAcc              0      0.00%     48.28% # Type of FU issued
system.cpu1.iq.FU_type_0::SimdSqrt                  0      0.00%     48.28% # Type of FU issued
system.cpu1.iq.FU_type_0::SimdFloatAdd              0      0.00%     48.28% # Type of FU issued
system.cpu1.iq.FU_type_0::SimdFloatAlu              0      0.00%     48.28% # Type of FU issued
system.cpu1.iq.FU_type_0::SimdFloatCmp              0      0.00%     48.28% # Type of FU issued
system.cpu1.iq.FU_type_0::SimdFloatCvt              0      0.00%     48.28% # Type of FU issued
system.cpu1.iq.FU_type_0::SimdFloatDiv              0      0.00%     48.28% # Type of FU issued
system.cpu1.iq.FU_type_0::SimdFloatMisc             0      0.00%     48.28% # Type of FU issued
system.cpu1.iq.FU_type_0::SimdFloatMult             0      0.00%     48.28% # Type of FU issued
system.cpu1.iq.FU_type_0::SimdFloatMultAcc            0      0.00%     48.28% # Type of FU issued
system.cpu1.iq.FU_type_0::SimdFloatSqrt             0      0.00%     48.28% # Type of FU issued
system.cpu1.iq.FU_type_0::MemRead               86338     35.75%     84.03% # Type of FU issued
system.cpu1.iq.FU_type_0::MemWrite              38560     15.97%    100.00% # Type of FU issued
system.cpu1.iq.FU_type_0::IprAccess                 0      0.00%    100.00% # Type of FU issued
system.cpu1.iq.FU_type_0::InstPrefetch              0      0.00%    100.00% # Type of FU issued
system.cpu1.iq.FU_type_0::total                241490                       # Type of FU issued
system.cpu1.iq.rate                          1.385445                       # Inst issue rate
system.cpu1.iq.fu_busy_cnt                        264                       # FU busy when requested
system.cpu1.iq.fu_busy_rate                  0.001093                       # FU busy rate (busy events/executed inst)
system.cpu1.iq.int_inst_queue_reads            654845                       # Number of integer instruction queue reads
system.cpu1.iq.int_inst_queue_writes           253312                       # Number of integer instruction queue writes
system.cpu1.iq.int_inst_queue_wakeup_accesses       240391                       # Number of integer instruction queue wakeup accesses
system.cpu1.iq.fp_inst_queue_reads                  0                       # Number of floating instruction queue reads
system.cpu1.iq.fp_inst_queue_writes                 0                       # Number of floating instruction queue writes
system.cpu1.iq.fp_inst_queue_wakeup_accesses            0                       # Number of floating instruction queue wakeup accesses
system.cpu1.iq.int_alu_accesses                241754                       # Number of integer alu accesses
system.cpu1.iq.fp_alu_accesses                      0                       # Number of floating point alu accesses
system.cpu1.iew.lsq.thread0.forwLoads           34276                       # Number of loads that had data forwarded from stores
system.cpu1.iew.lsq.thread0.invAddrLoads            0                       # Number of loads ignored due to an invalid address
system.cpu1.iew.lsq.thread0.squashedLoads         1784                       # Number of loads squashed
system.cpu1.iew.lsq.thread0.ignoredResponses            2                       # Number of memory responses ignored because the instruction is squashed
system.cpu1.iew.lsq.thread0.memOrderViolation           30                       # Number of memory ordering violations
system.cpu1.iew.lsq.thread0.squashedStores          861                       # Number of stores squashed
system.cpu1.iew.lsq.thread0.invAddrSwpfs            0                       # Number of software prefetches ignored due to an invalid address
system.cpu1.iew.lsq.thread0.blockedLoads            0                       # Number of blocked loads due to partial load-store forwarding
system.cpu1.iew.lsq.thread0.rescheduledLoads            0                       # Number of loads that were rescheduled
system.cpu1.iew.lsq.thread0.cacheBlocked            0                       # Number of times an access to memory failed due to the cache being blocked
system.cpu1.iew.iewIdleCycles                       0                       # Number of cycles IEW is idle
system.cpu1.iew.iewSquashCycles                  1999                       # Number of cycles IEW is squashing
system.cpu1.iew.iewBlockCycles                   1765                       # Number of cycles IEW is blocking
system.cpu1.iew.iewUnblockCycles                   48                       # Number of cycles IEW is unblocking
system.cpu1.iew.iewDispatchedInsts             285210                       # Number of instructions dispatched to IQ
system.cpu1.iew.iewDispSquashedInsts              302                       # Number of squashed instructions skipped by dispatch
system.cpu1.iew.iewDispLoadInsts                82183                       # Number of dispatched load instructions
system.cpu1.iew.iewDispStoreInsts               38955                       # Number of dispatched store instructions
system.cpu1.iew.iewDispNonSpecInsts              1043                       # Number of dispatched non-speculative instructions
system.cpu1.iew.iewIQFullEvents                    45                       # Number of times the IQ has become full, causing a stall
system.cpu1.iew.iewLSQFullEvents                    0                       # Number of times the LSQ has become full, causing a stall
system.cpu1.iew.memOrderViolationEvents            30                       # Number of memory order violations
system.cpu1.iew.predictedTakenIncorrect           599                       # Number of branches that were predicted taken incorrectly
system.cpu1.iew.predictedNotTakenIncorrect          655                       # Number of branches that were predicted not taken incorrectly
system.cpu1.iew.branchMispredicts                1254                       # Number of branch mispredicts detected at execute
system.cpu1.iew.iewExecutedInsts               240751                       # Number of executed instructions
system.cpu1.iew.iewExecLoadInsts                81429                       # Number of load instructions executed
system.cpu1.iew.iewExecSquashedInsts              739                       # Number of squashed instructions skipped in execute
system.cpu1.iew.exec_swp                            0                       # number of swp insts executed
system.cpu1.iew.exec_nop                        40289                       # number of nop insts executed
system.cpu1.iew.exec_refs                      119949                       # number of memory reference insts executed
system.cpu1.iew.exec_branches                   49362                       # Number of branches executed
system.cpu1.iew.exec_stores                     38520                       # Number of stores executed
system.cpu1.iew.exec_rate                    1.381205                       # Inst execution rate
system.cpu1.iew.wb_sent                        240558                       # cumulative count of insts sent to commit
system.cpu1.iew.wb_count                       240391                       # cumulative count of insts written-back
system.cpu1.iew.wb_producers                   136702                       # num instructions producing a value
system.cpu1.iew.wb_consumers                   141193                       # num instructions consuming a value
system.cpu1.iew.wb_penalized                        0                       # number of instrctions required to write to 'other' IQ
system.cpu1.iew.wb_rate                      1.379140                       # insts written-back per cycle
system.cpu1.iew.wb_fanout                    0.968192                       # average fanout of values written-back
system.cpu1.iew.wb_penalized_rate                   0                       # fraction of instructions written-back that wrote to 'other' IQ
system.cpu1.commit.commitCommittedInsts        275667                       # The number of committed instructions
system.cpu1.commit.commitSquashedInsts           9533                       # The number of squashed insts skipped by commit
system.cpu1.commit.commitNonSpecStalls           5427                       # The number of times commit has been forced to stall to communicate backwards
system.cpu1.commit.branchMispredicts             1085                       # The number of times a branch was mispredicted
system.cpu1.commit.committed_per_cycle::samples       163203                       # Number of insts commited each cycle
system.cpu1.commit.committed_per_cycle::mean     1.689105                       # Number of insts commited each cycle
system.cpu1.commit.committed_per_cycle::stdev     2.043033                       # Number of insts commited each cycle
system.cpu1.commit.committed_per_cycle::underflows            0      0.00%      0.00% # Number of insts commited each cycle
system.cpu1.commit.committed_per_cycle::0        64641     39.61%     39.61% # Number of insts commited each cycle
system.cpu1.commit.committed_per_cycle::1        47587     29.16%     68.77% # Number of insts commited each cycle
system.cpu1.commit.committed_per_cycle::2         5957      3.65%     72.42% # Number of insts commited each cycle
system.cpu1.commit.committed_per_cycle::3         6309      3.87%     76.28% # Number of insts commited each cycle
system.cpu1.commit.committed_per_cycle::4         1571      0.96%     77.24% # Number of insts commited each cycle
system.cpu1.commit.committed_per_cycle::5        34602     21.20%     98.45% # Number of insts commited each cycle
system.cpu1.commit.committed_per_cycle::6          646      0.40%     98.84% # Number of insts commited each cycle
system.cpu1.commit.committed_per_cycle::7         1051      0.64%     99.49% # Number of insts commited each cycle
system.cpu1.commit.committed_per_cycle::8          839      0.51%    100.00% # Number of insts commited each cycle
system.cpu1.commit.committed_per_cycle::overflows            0      0.00%    100.00% # Number of insts commited each cycle
system.cpu1.commit.committed_per_cycle::min_value            0                       # Number of insts commited each cycle
system.cpu1.commit.committed_per_cycle::max_value            8                       # Number of insts commited each cycle
system.cpu1.commit.committed_per_cycle::total       163203                       # Number of insts commited each cycle
system.cpu1.commit.count                       275667                       # Number of instructions committed
system.cpu1.commit.swp_count                        0                       # Number of s/w prefetches committed
system.cpu1.commit.refs                        118493                       # Number of memory references committed
system.cpu1.commit.loads                        80399                       # Number of loads committed
system.cpu1.commit.membars                       4716                       # Number of memory barriers committed
system.cpu1.commit.branches                     48773                       # Number of branches committed
system.cpu1.commit.fp_insts                         0                       # Number of committed floating point instructions.
system.cpu1.commit.int_insts                   189391                       # Number of committed integer instructions.
system.cpu1.commit.function_calls                 322                       # Number of function calls committed.
system.cpu1.commit.bw_lim_events                  839                       # number cycles where commit BW limit reached
system.cpu1.commit.bw_limited                       0                       # number of insts not committed due to BW limits
system.cpu1.rob.rob_reads                      446977                       # The number of ROB reads
system.cpu1.rob.rob_writes                     572400                       # The number of ROB writes
system.cpu1.timesIdled                            225                       # Number of times that the entire CPU went into an idle state and unscheduled itself
system.cpu1.idleCycles                           2707                       # Total number of cycles that the CPU has spent unscheduled due to idling
system.cpu1.quiesceCycles                       34329                       # Total number of cycles that CPU has spent quiesced or waiting for an interrupt
system.cpu1.committedInsts                     231385                       # Number of Instructions Simulated
system.cpu1.committedInsts_total               231385                       # Number of Instructions Simulated
system.cpu1.cpi                              0.753312                       # CPI: Cycles Per Instruction
system.cpu1.cpi_total                        0.753312                       # CPI: Total CPI of All Threads
system.cpu1.ipc                              1.327472                       # IPC: Instructions Per Cycle
system.cpu1.ipc_total                        1.327472                       # IPC: Total IPC of All Threads
system.cpu1.int_regfile_reads                  418065                       # number of integer regfile reads
system.cpu1.int_regfile_writes                 194844                       # number of integer regfile writes
system.cpu1.fp_regfile_writes                      64                       # number of floating regfile writes
system.cpu1.misc_regfile_reads                 121500                       # number of misc regfile reads
system.cpu1.misc_regfile_writes                   646                       # number of misc regfile writes
system.cpu1.icache.replacements                   317                       # number of replacements
system.cpu1.icache.tagsinuse                84.541118                       # Cycle average of tags in use
system.cpu1.icache.total_refs                   17870                       # Total number of references to valid blocks.
system.cpu1.icache.sampled_refs                   427                       # Sample count of references to valid blocks.
system.cpu1.icache.avg_refs                 41.850117                       # Average number of references to valid blocks.
system.cpu1.icache.warmup_cycle                     0                       # Cycle when the warmup percentage was hit.
system.cpu1.icache.occ_blocks::0            84.541118                       # Average occupied blocks per context
system.cpu1.icache.occ_percent::0            0.165119                       # Average percentage of cache occupancy
system.cpu1.icache.ReadReq_hits                 17870                       # number of ReadReq hits
[...]
system.l2c.UpgradeReq_hits::0                       3                       # number of UpgradeReq hits
system.l2c.UpgradeReq_hits::total                   3                       # number of UpgradeReq hits
system.l2c.demand_hits::0                         233                       # number of demand (read+write) hits
system.l2c.demand_hits::1                         424                       # number of demand (read+write) hits
system.l2c.demand_hits::2                         356                       # number of demand (read+write) hits
system.l2c.demand_hits::3                         436                       # number of demand (read+write) hits
system.l2c.demand_hits::total                    1449                       # number of demand (read+write) hits
system.l2c.overall_hits::0                        233                       # number of overall hits
system.l2c.overall_hits::1                        424                       # number of overall hits
system.l2c.overall_hits::2                        356                       # number of overall hits
system.l2c.overall_hits::3                        436                       # number of overall hits
system.l2c.overall_hits::total                   1449                       # number of overall hits
system.l2c.ReadReq_misses::0                      429                       # number of ReadReq misses
system.l2c.ReadReq_misses::1                       16                       # number of ReadReq misses
system.l2c.ReadReq_misses::2                       85                       # number of ReadReq misses
system.l2c.ReadReq_misses::3                        3                       # number of ReadReq misses
system.l2c.ReadReq_misses::total                  533                       # number of ReadReq misses
system.l2c.UpgradeReq_misses::0                    21                       # number of UpgradeReq misses
system.l2c.UpgradeReq_misses::1                    22                       # number of UpgradeReq misses
system.l2c.UpgradeReq_misses::2                    22                       # number of UpgradeReq misses
system.l2c.UpgradeReq_misses::3                    22                       # number of UpgradeReq misses
system.l2c.UpgradeReq_misses::total                87                       # number of UpgradeReq misses
system.l2c.ReadExReq_misses::0                     94                       # number of ReadExReq misses
system.l2c.ReadExReq_misses::1                     12                       # number of ReadExReq misses
system.l2c.ReadExReq_misses::2                     13                       # number of ReadExReq misses
system.l2c.ReadExReq_misses::3                     12                       # number of ReadExReq misses
system.l2c.ReadExReq_misses::total                131                       # number of ReadExReq misses
system.l2c.demand_misses::0                       523                       # number of demand (read+write) misses
system.l2c.demand_misses::1                        28                       # number of demand (read+write) misses
system.l2c.demand_misses::2                        98                       # number of demand (read+write) misses
system.l2c.demand_misses::3                        15                       # number of demand (read+write) misses
system.l2c.demand_misses::total                   664                       # number of demand (read+write) misses
system.l2c.overall_misses::0                      523                       # number of overall misses
system.l2c.overall_misses::1                       28                       # number of overall misses
system.l2c.overall_misses::2                       98                       # number of overall misses
system.l2c.overall_misses::3                       15                       # number of overall misses
system.l2c.overall_misses::total                  664                       # number of overall misses
system.l2c.ReadReq_miss_latency              27701000                       # number of ReadReq miss cycles
system.l2c.UpgradeReq_miss_latency             157500                       # number of UpgradeReq miss cycles
system.l2c.ReadExReq_miss_latency             6878000                       # number of ReadExReq miss cycles
system.l2c.demand_miss_latency               34579000                       # number of demand (read+write) miss cycles
system.l2c.overall_miss_latency              34579000                       # number of overall miss cycles
system.l2c.ReadReq_accesses::0                    662                       # number of ReadReq accesses(hits+misses)
system.l2c.ReadReq_accesses::1                    440                       # number of ReadReq accesses(hits+misses)
system.l2c.ReadReq_accesses::2                    441                       # number of ReadReq accesses(hits+misses)
system.l2c.ReadReq_accesses::3                    439                       # number of ReadReq accesses(hits+misses)
system.l2c.ReadReq_accesses::total               1982                       # number of ReadReq accesses(hits+misses)
system.l2c.Writeback_accesses::0                    9                       # number of Writeback accesses(hits+misses)
system.l2c.Writeback_accesses::total                9                       # number of Writeback accesses(hits+misses)
system.l2c.UpgradeReq_accesses::0                  24                       # number of UpgradeReq accesses(hits+misses)
system.l2c.UpgradeReq_accesses::1                  22                       # number of UpgradeReq accesses(hits+misses)
system.l2c.UpgradeReq_accesses::2                  22                       # number of UpgradeReq accesses(hits+misses)
system.l2c.UpgradeReq_accesses::3                  22                       # number of UpgradeReq accesses(hits+misses)
system.l2c.UpgradeReq_accesses::total              90                       # number of UpgradeReq accesses(hits+misses)
system.l2c.ReadExReq_accesses::0                   94                       # number of ReadExReq accesses(hits+misses)
system.l2c.ReadExReq_accesses::1                   12                       # number of ReadExReq accesses(hits+misses)
system.l2c.ReadExReq_accesses::2                   13                       # number of ReadExReq accesses(hits+misses)
system.l2c.ReadExReq_accesses::3                   12                       # number of ReadExReq accesses(hits+misses)
system.l2c.ReadExReq_accesses::total              131                       # number of ReadExReq accesses(hits+misses)
system.l2c.demand_accesses::0                     756                       # number of demand (read+write) accesses
system.l2c.demand_accesses::1                     452                       # number of demand (read+write) accesses
system.l2c.demand_accesses::2                     454                       # number of demand (read+write) accesses
system.l2c.demand_accesses::3                     451                       # number of demand (read+write) accesses
system.l2c.demand_accesses::total                2113                       # number of demand (read+write) accesses
system.l2c.overall_accesses::0                    756                       # number of overall (read+write) accesses
system.l2c.overall_accesses::1                    452                       # number of overall (read+write) accesses
system.l2c.overall_accesses::2                    454                       # number of overall (read+write) accesses
system.l2c.overall_accesses::3                    451                       # number of overall (read+write) accesses
system.l2c.overall_accesses::total               2113                       # number of overall (read+write) accesses
system.l2c.ReadReq_miss_rate::0              0.648036                       # miss rate for ReadReq accesses
system.l2c.ReadReq_miss_rate::1              0.036364                       # miss rate for ReadReq accesses
system.l2c.ReadReq_miss_rate::2              0.192744                       # miss rate for ReadReq accesses
system.l2c.ReadReq_miss_rate::3              0.006834                       # miss rate for ReadReq accesses
system.l2c.ReadReq_miss_rate::total          0.883977                       # miss rate for ReadReq accesses
system.l2c.UpgradeReq_miss_rate::0           0.875000                       # miss rate for UpgradeReq accesses
system.l2c.UpgradeReq_miss_rate::1                  1                       # miss rate for UpgradeReq accesses
system.l2c.UpgradeReq_miss_rate::2                  1                       # miss rate for UpgradeReq accesses
system.l2c.UpgradeReq_miss_rate::3                  1                       # miss rate for UpgradeReq accesses
system.l2c.UpgradeReq_miss_rate::total       3.875000                       # miss rate for UpgradeReq accesses
system.l2c.ReadExReq_miss_rate::0                   1                       # miss rate for ReadExReq accesses
system.l2c.ReadExReq_miss_rate::1                   1                       # miss rate for ReadExReq accesses
system.l2c.ReadExReq_miss_rate::2                   1                       # miss rate for ReadExReq accesses
system.l2c.ReadExReq_miss_rate::3                   1                       # miss rate for ReadExReq accesses
system.l2c.ReadExReq_miss_rate::total               4                       # miss rate for ReadExReq accesses
system.l2c.demand_miss_rate::0               0.691799                       # miss rate for demand accesses
system.l2c.demand_miss_rate::1               0.061947                       # miss rate for demand accesses
system.l2c.demand_miss_rate::2               0.215859                       # miss rate for demand accesses
system.l2c.demand_miss_rate::3               0.033259                       # miss rate for demand accesses
system.l2c.demand_miss_rate::total           1.002864                       # miss rate for demand accesses
system.l2c.overall_miss_rate::0              0.691799                       # miss rate for overall accesses
system.l2c.overall_miss_rate::1              0.061947                       # miss rate for overall accesses
system.l2c.overall_miss_rate::2              0.215859                       # miss rate for overall accesses
system.l2c.overall_miss_rate::3              0.033259                       # miss rate for overall accesses
system.l2c.overall_miss_rate::total          1.002864                       # miss rate for overall accesses
system.l2c.ReadReq_avg_miss_latency::0   64571.095571                       # average ReadReq miss latency
system.l2c.ReadReq_avg_miss_latency::1   1731312.500000                       # average ReadReq miss latency
system.l2c.ReadReq_avg_miss_latency::2   325894.117647                       # average ReadReq miss latency
system.l2c.ReadReq_avg_miss_latency::3   9233666.666667                       # average ReadReq miss latency
system.l2c.ReadReq_avg_miss_latency::total 11355444.379885                       # average ReadReq miss latency
system.l2c.UpgradeReq_avg_miss_latency::0         7500                       # average UpgradeReq miss latency
system.l2c.UpgradeReq_avg_miss_latency::1  7159.090909                       # average UpgradeReq miss latency
system.l2c.UpgradeReq_avg_miss_latency::2  7159.090909                       # average UpgradeReq miss latency
system.l2c.UpgradeReq_avg_miss_latency::3  7159.090909                       # average UpgradeReq miss latency
system.l2c.UpgradeReq_avg_miss_latency::total 28977.272727                       # average UpgradeReq miss latency
system.l2c.ReadExReq_avg_miss_latency::0 73170.212766                       # average ReadExReq miss latency
system.l2c.ReadExReq_avg_miss_latency::1 573166.666667                       # average ReadExReq miss latency
system.l2c.ReadExReq_avg_miss_latency::2 529076.923077                       # average ReadExReq miss latency
system.l2c.ReadExReq_avg_miss_latency::3 573166.666667                       # average ReadExReq miss latency
system.l2c.ReadExReq_avg_miss_latency::total 1748580.469176                       # average ReadExReq miss latency
system.l2c.demand_avg_miss_latency::0    66116.634799                       # average overall miss latency
system.l2c.demand_avg_miss_latency::1    1234964.285714                       # average overall miss latency
system.l2c.demand_avg_miss_latency::2    352846.938776                       # average overall miss latency
system.l2c.demand_avg_miss_latency::3    2305266.666667                       # average overall miss latency
system.l2c.demand_avg_miss_latency::total 3959194.525956                       # average overall miss latency
system.l2c.overall_avg_miss_latency::0   66116.634799                       # average overall miss latency
system.l2c.overall_avg_miss_latency::1   1234964.285714                       # average overall miss latency
system.l2c.overall_avg_miss_latency::2   352846.938776                       # average overall miss latency
system.l2c.overall_avg_miss_latency::3   2305266.666667                       # average overall miss latency
system.l2c.overall_avg_miss_latency::total 3959194.525956                       # average overall miss latency
system.l2c.blocked_cycles::no_mshrs                 0                       # number of cycles access was blocked
system.l2c.blocked_cycles::no_targets               0                       # number of cycles access was blocked
system.l2c.blocked::no_mshrs                        0                       # number of cycles access was blocked
system.l2c.blocked::no_targets                      0                       # number of cycles access was blocked
system.l2c.avg_blocked_cycles::no_mshrs      no_value                       # average number of cycles each access was blocked
system.l2c.avg_blocked_cycles::no_targets     no_value                       # average number of cycles each access was blocked
system.l2c.fast_writes                              0                       # number of fast writes performed
system.l2c.cache_copies                             0                       # number of cache copies performed
system.l2c.writebacks                               0                       # number of writebacks
system.l2c.ReadReq_mshr_hits                        8                       # number of ReadReq MSHR hits
system.l2c.demand_mshr_hits                         8                       # number of demand (read+write) MSHR hits
system.l2c.overall_mshr_hits                        8                       # number of overall MSHR hits
system.l2c.ReadReq_mshr_misses                    525                       # number of ReadReq MSHR misses
system.l2c.UpgradeReq_mshr_misses                  87                       # number of UpgradeReq MSHR misses
system.l2c.ReadExReq_mshr_misses                  131                       # number of ReadExReq MSHR misses
system.l2c.demand_mshr_misses                     656                       # number of demand (read+write) MSHR misses
system.l2c.overall_mshr_misses                    656                       # number of overall MSHR misses
system.l2c.overall_mshr_uncacheable_misses            0                       # number of overall MSHR uncacheable misses
system.l2c.ReadReq_mshr_miss_latency         20993500                       # number of ReadReq MSHR miss cycles
system.l2c.UpgradeReq_mshr_miss_latency       3480000                       # number of UpgradeReq MSHR miss cycles
system.l2c.ReadExReq_mshr_miss_latency        5279000                       # number of ReadExReq MSHR miss cycles
system.l2c.demand_mshr_miss_latency          26272500                       # number of demand (read+write) MSHR miss cycles
system.l2c.overall_mshr_miss_latency         26272500                       # number of overall MSHR miss cycles
system.l2c.overall_mshr_uncacheable_latency            0                       # number of overall MSHR uncacheable cycles
system.l2c.ReadReq_mshr_miss_rate::0         0.793051                       # mshr miss rate for ReadReq accesses
system.l2c.ReadReq_mshr_miss_rate::1         1.193182                       # mshr miss rate for ReadReq accesses
system.l2c.ReadReq_mshr_miss_rate::2         1.190476                       # mshr miss rate for ReadReq accesses
system.l2c.ReadReq_mshr_miss_rate::3         1.195900                       # mshr miss rate for ReadReq accesses
system.l2c.ReadReq_mshr_miss_rate::total     4.372609                       # mshr miss rate for ReadReq accesses
system.l2c.UpgradeReq_mshr_miss_rate::0      3.625000                       # mshr miss rate for UpgradeReq accesses
system.l2c.UpgradeReq_mshr_miss_rate::1      3.954545                       # mshr miss rate for UpgradeReq accesses
system.l2c.UpgradeReq_mshr_miss_rate::2      3.954545                       # mshr miss rate for UpgradeReq accesses
system.l2c.UpgradeReq_mshr_miss_rate::3      3.954545                       # mshr miss rate for UpgradeReq accesses
system.l2c.UpgradeReq_mshr_miss_rate::total    15.488636                       # mshr miss rate for UpgradeReq accesses
system.l2c.ReadExReq_mshr_miss_rate::0       1.393617                       # mshr miss rate for ReadExReq accesses
system.l2c.ReadExReq_mshr_miss_rate::1      10.916667                       # mshr miss rate for ReadExReq accesses
system.l2c.ReadExReq_mshr_miss_rate::2      10.076923                       # mshr miss rate for ReadExReq accesses
system.l2c.ReadExReq_mshr_miss_rate::3      10.916667                       # mshr miss rate for ReadExReq accesses
system.l2c.ReadExReq_mshr_miss_rate::total    33.303873                       # mshr miss rate for ReadExReq accesses
system.l2c.demand_mshr_miss_rate::0          0.867725                       # mshr miss rate for demand accesses
system.l2c.demand_mshr_miss_rate::1          1.451327                       # mshr miss rate for demand accesses
system.l2c.demand_mshr_miss_rate::2          1.444934                       # mshr miss rate for demand accesses
system.l2c.demand_mshr_miss_rate::3          1.454545                       # mshr miss rate for demand accesses
system.l2c.demand_mshr_miss_rate::total      5.218532                       # mshr miss rate for demand accesses
system.l2c.overall_mshr_miss_rate::0         0.867725                       # mshr miss rate for overall accesses
system.l2c.overall_mshr_miss_rate::1         1.451327                       # mshr miss rate for overall accesses
system.l2c.overall_mshr_miss_rate::2         1.444934                       # mshr miss rate for overall accesses
system.l2c.overall_mshr_miss_rate::3         1.454545                       # mshr miss rate for overall accesses
system.l2c.overall_mshr_miss_rate::total     5.218532                       # mshr miss rate for overall accesses
system.l2c.ReadReq_avg_mshr_miss_latency 39987.619048                       # average ReadReq mshr miss latency
system.l2c.UpgradeReq_avg_mshr_miss_latency        40000                       # average UpgradeReq mshr miss latency
system.l2c.ReadExReq_avg_mshr_miss_latency 40297.709924                       # average ReadExReq mshr miss latency
system.l2c.demand_avg_mshr_miss_latency  40049.542683                       # average overall mshr miss latency
system.l2c.overall_avg_mshr_miss_latency 40049.542683                       # average overall mshr miss latency
system.l2c.overall_avg_mshr_uncacheable_latency     no_value                       # average overall mshr uncacheable latency
system.l2c.mshr_cap_events                          0                       # number of times MSHR cap was activated
system.l2c.soft_prefetch_mshr_full                  0                       # number of mshr full events for SW prefetching instrutions
system.l2c.no_allocate_misses                       0                       # Number of misses that were no-allocate

---------- End Simulation Statistics   ----------
