
---------- Begin Simulation Statistics ----------
host_inst_rate                                3001240                       # Simulator instruction rate (inst/s)
host_mem_usage                                 352084                       # Number of bytes of host memory used
host_seconds                                    89.86                       # Real time elapsed on the host
host_tick_rate                             1832836403                       # Simulator tick rate (ticks/s)
sim_freq                                 1000000000000                       # Frequency of simulated ticks
sim_insts                                   269696010                       # Number of instructions simulated
sim_seconds                                  0.164702                       # Number of seconds simulated
sim_ticks                                164701817000                       # Number of ticks simulated
system.cpu.idle_fraction                            0                       # Percentage of idle cycles
system.cpu.not_idle_fraction                        1                       # Percentage of non-idle cycles
system.cpu.numCycles                        329403635                       # number of cpu cycles simulated
system.cpu.num_insts                        269696010                       # Number of instructions executed
system.cpu.num_refs                         122219139                       # Number of memory references
system.cpu.workload.PROG:num_syscalls             444                       # Number of system calls

---------- End Simulation Statistics   ----------
