
---------- Begin Simulation Statistics ----------
host_inst_rate                                  67050                       # Simulator instruction rate (inst/s)
host_mem_usage                                 201292                       # Number of bytes of host memory used
host_seconds                                     0.14                       # Real time elapsed on the host
host_tick_rate                               38741287                       # Simulator tick rate (ticks/s)
sim_freq                                 1000000000000                       # Frequency of simulated ticks
sim_insts                                        9494                       # Number of instructions simulated
sim_seconds                                  0.000005                       # Number of seconds simulated
sim_ticks                                     5491500                       # Number of ticks simulated
system.cpu.idle_fraction                            0                       # Percentage of idle cycles
system.cpu.not_idle_fraction                        1                       # Percentage of non-idle cycles
system.cpu.numCycles                            10984                       # number of cpu cycles simulated
system.cpu.num_insts                             9494                       # Number of instructions executed
system.cpu.num_refs                              1987                       # Number of memory references
system.cpu.workload.PROG:num_syscalls              11                       # Number of system calls

---------- End Simulation Statistics   ----------
