gem5 Simulator System.  http://gem5.org
gem5 is copyrighted software; use the --copyright option for details.

gem5 compiled Mar  9 2012 10:15:20
gem5 started Mar  9 2012 10:18:58
gem5 executing on zizzer
command line: build/ARM/gem5.fast -d build/ARM/tests/fast/long/se/30.eon/arm/linux/o3-timing -re tests/run.py build/ARM/tests/fast/long/se/30.eon/arm/linux/o3-timing
Global frequency set at 1000000000000 ticks per second
info: Entering event queue @ 0.  Starting simulation...
info: Increasing stack size by one page.
Eon, Version 1.1
info: Increasing stack size by one page.
info: Increasing stack size by one page.
info: Increasing stack size by one page.
OO-style eon Time= 0.090000
Exiting @ tick 99661890000 because target called exit()
