Redirecting stdout to build/ARM/tests/opt/long/se/30.eon/arm/linux/o3-timing/simout
Redirecting stderr to build/ARM/tests/opt/long/se/30.eon/arm/linux/o3-timing/simerr
gem5 Simulator System.  http://gem5.org
gem5 is copyrighted software; use the --copyright option for details.

gem5 compiled Feb 10 2012 00:18:03
gem5 started Feb 10 2012 00:18:22
gem5 executing on ribera.cs.wisc.edu
command line: build/ARM/gem5.opt -d build/ARM/tests/opt/long/se/30.eon/arm/linux/o3-timing -re tests/run.py build/ARM/tests/opt/long/se/30.eon/arm/linux/o3-timing
Global frequency set at 1000000000000 ticks per second
info: Entering event queue @ 0.  Starting simulation...
info: Increasing stack size by one page.
Eon, Version 1.1
info: Increasing stack size by one page.
info: Increasing stack size by one page.
info: Increasing stack size by one page.
OO-style eon Time= 0.100000
Exiting @ tick 104492506500 because target called exit()
