
---------- Begin Simulation Statistics ----------
sim_seconds                                  0.000663                       # Number of seconds simulated
sim_ticks                                   663454500                       # Number of ticks simulated
final_tick                                  663454500                       # Number of ticks from beginning of simulation (restored from checkpoints and never reset)
sim_freq                                 1000000000000                       # Frequency of simulated ticks
host_inst_rate                                 153021                       # Simulator instruction rate (inst/s)
host_op_rate                                   314663                       # Simulator op (including micro ops) rate (op/s)
host_tick_rate                             1515963159                       # Simulator tick rate (ticks/s)
host_mem_usage                                1308268                       # Number of bytes of host memory used
host_seconds                                     0.44                       # Real time elapsed on the host
sim_insts                                       66963                       # Number of instructions simulated
sim_ops                                        137705                       # Number of ops (including micro ops) simulated
system.voltage_domain.voltage                       1                       # Voltage in Volts
system.clk_domain.clock                          1000                       # Clock period in ticks
system.mem_ctrls.bytes_read::dir_cntrl0         99264                       # Number of bytes read from this memory
system.mem_ctrls.bytes_read::total              99264                       # Number of bytes read from this memory
system.mem_ctrls.num_reads::dir_cntrl0           1551                       # Number of read requests responded to by this memory
system.mem_ctrls.num_reads::total                1551                       # Number of read requests responded to by this memory
system.mem_ctrls.bw_read::dir_cntrl0        149616892                       # Total read bandwidth from this memory (bytes/s)
system.mem_ctrls.bw_read::total             149616892                       # Total read bandwidth from this memory (bytes/s)
system.mem_ctrls.bw_total::dir_cntrl0       149616892                       # Total bandwidth to/from this memory (bytes/s)
system.mem_ctrls.bw_total::total            149616892                       # Total bandwidth to/from this memory (bytes/s)
system.mem_ctrls.readReqs                        1551                       # Number of read requests accepted
system.mem_ctrls.writeReqs                          0                       # Number of write requests accepted
system.mem_ctrls.readBursts                      1551                       # Number of DRAM read bursts, including those serviced by the write queue
system.mem_ctrls.writeBursts                        0                       # Number of DRAM write bursts, including those merged in the write queue
system.mem_ctrls.bytesReadDRAM                  99264                       # Total number of bytes read from DRAM
system.mem_ctrls.bytesReadWrQ                       0                       # Total number of bytes read from write queue
system.mem_ctrls.bytesWritten                       0                       # Total number of bytes written to DRAM
system.mem_ctrls.bytesReadSys                   99264                       # Total read bytes from the system interface side
system.mem_ctrls.bytesWrittenSys                    0                       # Total written bytes from the system interface side
system.mem_ctrls.servicedByWrQ                      0                       # Number of DRAM read bursts serviced by the write queue
system.mem_ctrls.mergedWrBursts                     0                       # Number of DRAM write bursts merged with an existing one
system.mem_ctrls.neitherReadNorWriteReqs            0                       # Number of requests that are neither read nor write
system.mem_ctrls.perBankRdBursts::0               122                       # Per bank write bursts
system.mem_ctrls.perBankRdBursts::1               192                       # Per bank write bursts
system.mem_ctrls.perBankRdBursts::2                93                       # Per bank write bursts
system.mem_ctrls.perBankRdBursts::3                44                       # Per bank write bursts
system.mem_ctrls.perBankRdBursts::4                61                       # Per bank write bursts
system.mem_ctrls.perBankRdBursts::5                79                       # Per bank write bursts
system.mem_ctrls.perBankRdBursts::6                52                       # Per bank write bursts
system.mem_ctrls.perBankRdBursts::7                42                       # Per bank write bursts
system.mem_ctrls.perBankRdBursts::8                54                       # Per bank write bursts
system.mem_ctrls.perBankRdBursts::9                56                       # Per bank write bursts
system.mem_ctrls.perBankRdBursts::10              174                       # Per bank write bursts
system.mem_ctrls.perBankRdBursts::11               90                       # Per bank write bursts
system.mem_ctrls.perBankRdBursts::12              222                       # Per bank write bursts
system.mem_ctrls.perBankRdBursts::13              125                       # Per bank write bursts
system.mem_ctrls.perBankRdBursts::14               51                       # Per bank write bursts
system.mem_ctrls.perBankRdBursts::15               94                       # Per bank write bursts
system.mem_ctrls.perBankWrBursts::0                 0                       # Per bank write bursts
system.mem_ctrls.perBankWrBursts::1                 0                       # Per bank write bursts
system.mem_ctrls.perBankWrBursts::2                 0                       # Per bank write bursts
system.mem_ctrls.perBankWrBursts::3                 0                       # Per bank write bursts
system.mem_ctrls.perBankWrBursts::4                 0                       # Per bank write bursts
system.mem_ctrls.perBankWrBursts::5                 0                       # Per bank write bursts
system.mem_ctrls.perBankWrBursts::6                 0                       # Per bank write bursts
system.mem_ctrls.perBankWrBursts::7                 0                       # Per bank write bursts
system.mem_ctrls.perBankWrBursts::8                 0                       # Per bank write bursts
system.mem_ctrls.perBankWrBursts::9                 0                       # Per bank write bursts
system.mem_ctrls.perBankWrBursts::10                0                       # Per bank write bursts
system.mem_ctrls.perBankWrBursts::11                0                       # Per bank write bursts
system.mem_ctrls.perBankWrBursts::12                0                       # Per bank write bursts
system.mem_ctrls.perBankWrBursts::13                0                       # Per bank write bursts
system.mem_ctrls.perBankWrBursts::14                0                       # Per bank write bursts
system.mem_ctrls.perBankWrBursts::15                0                       # Per bank write bursts
system.mem_ctrls.numRdRetry                         0                       # Number of times read queue was full causing retry
system.mem_ctrls.numWrRetry                         0                       # Number of times write queue was full causing retry
system.mem_ctrls.totGap                     663221000                       # Total gap between requests
system.mem_ctrls.readPktSize::0                     0                       # Read request sizes (log2)
system.mem_ctrls.readPktSize::1                     0                       # Read request sizes (log2)
system.mem_ctrls.readPktSize::2                     0                       # Read request sizes (log2)
system.mem_ctrls.readPktSize::3                     0                       # Read request sizes (log2)
system.mem_ctrls.readPktSize::4                     0                       # Read request sizes (log2)
system.mem_ctrls.readPktSize::5                     0                       # Read request sizes (log2)
system.mem_ctrls.readPktSize::6                  1551                       # Read request sizes (log2)
system.mem_ctrls.writePktSize::0                    0                       # Write request sizes (log2)
system.mem_ctrls.writePktSize::1                    0                       # Write request sizes (log2)
system.mem_ctrls.writePktSize::2                    0                       # Write request sizes (log2)
system.mem_ctrls.writePktSize::3                    0                       # Write request sizes (log2)
system.mem_ctrls.writePktSize::4                    0                       # Write request sizes (log2)
system.mem_ctrls.writePktSize::5                    0                       # Write request sizes (log2)
system.mem_ctrls.writePktSize::6                    0                       # Write request sizes (log2)
system.mem_ctrls.rdQLenPdf::0                    1542                       # What read queue length does an incoming req see
system.mem_ctrls.rdQLenPdf::1                       2                       # What read queue length does an incoming req see
system.mem_ctrls.rdQLenPdf::2                       1                       # What read queue length does an incoming req see
system.mem_ctrls.rdQLenPdf::3                       1                       # What read queue length does an incoming req see
system.mem_ctrls.rdQLenPdf::4                       2                       # What read queue length does an incoming req see
system.mem_ctrls.rdQLenPdf::5                       2                       # What read queue length does an incoming req see
system.mem_ctrls.rdQLenPdf::6                       1                       # What read queue length does an incoming req see
system.mem_ctrls.rdQLenPdf::7                       0                       # What read queue length does an incoming req see
system.mem_ctrls.rdQLenPdf::8                       0                       # What read queue length does an incoming req see
system.mem_ctrls.rdQLenPdf::9                       0                       # What read queue length does an incoming req see
system.mem_ctrls.rdQLenPdf::10                      0                       # What read queue length does an incoming req see
system.mem_ctrls.rdQLenPdf::11                      0                       # What read queue length does an incoming req see
system.mem_ctrls.rdQLenPdf::12                      0                       # What read queue length does an incoming req see
system.mem_ctrls.rdQLenPdf::13                      0                       # What read queue length does an incoming req see
system.mem_ctrls.rdQLenPdf::14                      0                       # What read queue length does an incoming req see
system.mem_ctrls.rdQLenPdf::15                      0                       # What read queue length does an incoming req see
system.mem_ctrls.rdQLenPdf::16                      0                       # What read queue length does an incoming req see
system.mem_ctrls.rdQLenPdf::17                      0                       # What read queue length does an incoming req see
system.mem_ctrls.rdQLenPdf::18                      0                       # What read queue length does an incoming req see
system.mem_ctrls.rdQLenPdf::19                      0                       # What read queue length does an incoming req see
system.mem_ctrls.rdQLenPdf::20                      0                       # What read queue length does an incoming req see
system.mem_ctrls.rdQLenPdf::21                      0                       # What read queue length does an incoming req see
system.mem_ctrls.rdQLenPdf::22                      0                       # What read queue length does an incoming req see
system.mem_ctrls.rdQLenPdf::23                      0                       # What read queue length does an incoming req see
system.mem_ctrls.rdQLenPdf::24                      0                       # What read queue length does an incoming req see
system.mem_ctrls.rdQLenPdf::25                      0                       # What read queue length does an incoming req see
system.mem_ctrls.rdQLenPdf::26                      0                       # What read queue length does an incoming req see
system.mem_ctrls.rdQLenPdf::27                      0                       # What read queue length does an incoming req see
system.mem_ctrls.rdQLenPdf::28                      0                       # What read queue length does an incoming req see
system.mem_ctrls.rdQLenPdf::29                      0                       # What read queue length does an incoming req see
system.mem_ctrls.rdQLenPdf::30                      0                       # What read queue length does an incoming req see
system.mem_ctrls.rdQLenPdf::31                      0                       # What read queue length does an incoming req see
system.mem_ctrls.wrQLenPdf::0                       0                       # What write queue length does an incoming req see
system.mem_ctrls.wrQLenPdf::1                       0                       # What write queue length does an incoming req see
system.mem_ctrls.wrQLenPdf::2                       0                       # What write queue length does an incoming req see
system.mem_ctrls.wrQLenPdf::3                       0                       # What write queue length does an incoming req see
system.mem_ctrls.wrQLenPdf::4                       0                       # What write queue length does an incoming req see
system.mem_ctrls.wrQLenPdf::5                       0                       # What write queue length does an incoming req see
system.mem_ctrls.wrQLenPdf::6                       0                       # What write queue length does an incoming req see
system.mem_ctrls.wrQLenPdf::7                       0                       # What write queue length does an incoming req see
system.mem_ctrls.wrQLenPdf::8                       0                       # What write queue length does an incoming req see
system.mem_ctrls.wrQLenPdf::9                       0                       # What write queue length does an incoming req see
system.mem_ctrls.wrQLenPdf::10                      0                       # What write queue length does an incoming req see
system.mem_ctrls.wrQLenPdf::11                      0                       # What write queue length does an incoming req see
system.mem_ctrls.wrQLenPdf::12                      0                       # What write queue length does an incoming req see
system.mem_ctrls.wrQLenPdf::13                      0                       # What write queue length does an incoming req see
system.mem_ctrls.wrQLenPdf::14                      0                       # What write queue length does an incoming req see
system.mem_ctrls.wrQLenPdf::15                      0                       # What write queue length does an incoming req see
system.mem_ctrls.wrQLenPdf::16                      0                       # What write queue length does an incoming req see
system.mem_ctrls.wrQLenPdf::17                      0                       # What write queue length does an incoming req see
system.mem_ctrls.wrQLenPdf::18                      0                       # What write queue length does an incoming req see
system.mem_ctrls.wrQLenPdf::19                      0                       # What write queue length does an incoming req see
system.mem_ctrls.wrQLenPdf::20                      0                       # What write queue length does an incoming req see
system.mem_ctrls.wrQLenPdf::21                      0                       # What write queue length does an incoming req see
system.mem_ctrls.wrQLenPdf::22                      0                       # What write queue length does an incoming req see
system.mem_ctrls.wrQLenPdf::23                      0                       # What write queue length does an incoming req see
system.mem_ctrls.wrQLenPdf::24                      0                       # What write queue length does an incoming req see
system.mem_ctrls.wrQLenPdf::25                      0                       # What write queue length does an incoming req see
system.mem_ctrls.wrQLenPdf::26                      0                       # What write queue length does an incoming req see
system.mem_ctrls.wrQLenPdf::27                      0                       # What write queue length does an incoming req see
system.mem_ctrls.wrQLenPdf::28                      0                       # What write queue length does an incoming req see
system.mem_ctrls.wrQLenPdf::29                      0                       # What write queue length does an incoming req see
system.mem_ctrls.wrQLenPdf::30                      0                       # What write queue length does an incoming req see
system.mem_ctrls.wrQLenPdf::31                      0                       # What write queue length does an incoming req see
system.mem_ctrls.wrQLenPdf::32                      0                       # What write queue length does an incoming req see
system.mem_ctrls.wrQLenPdf::33                      0                       # What write queue length does an incoming req see
system.mem_ctrls.wrQLenPdf::34                      0                       # What write queue length does an incoming req see
system.mem_ctrls.wrQLenPdf::35                      0                       # What write queue length does an incoming req see
system.mem_ctrls.wrQLenPdf::36                      0                       # What write queue length does an incoming req see
system.mem_ctrls.wrQLenPdf::37                      0                       # What write queue length does an incoming req see
system.mem_ctrls.wrQLenPdf::38                      0                       # What write queue length does an incoming req see
system.mem_ctrls.wrQLenPdf::39                      0                       # What write queue length does an incoming req see
system.mem_ctrls.wrQLenPdf::40                      0                       # What write queue length does an incoming req see
system.mem_ctrls.wrQLenPdf::41                      0                       # What write queue length does an incoming req see
system.mem_ctrls.wrQLenPdf::42                      0                       # What write queue length does an incoming req see
system.mem_ctrls.wrQLenPdf::43                      0                       # What write queue length does an incoming req see
system.mem_ctrls.wrQLenPdf::44                      0                       # What write queue length does an incoming req see
system.mem_ctrls.wrQLenPdf::45                      0                       # What write queue length does an incoming req see
system.mem_ctrls.wrQLenPdf::46                      0                       # What write queue length does an incoming req see
system.mem_ctrls.wrQLenPdf::47                      0                       # What write queue length does an incoming req see
system.mem_ctrls.wrQLenPdf::48                      0                       # What write queue length does an incoming req see
system.mem_ctrls.wrQLenPdf::49                      0                       # What write queue length does an incoming req see
system.mem_ctrls.wrQLenPdf::50                      0                       # What write queue length does an incoming req see
system.mem_ctrls.wrQLenPdf::51                      0                       # What write queue length does an incoming req see
system.mem_ctrls.wrQLenPdf::52                      0                       # What write queue length does an incoming req see
system.mem_ctrls.wrQLenPdf::53                      0                       # What write queue length does an incoming req see
system.mem_ctrls.wrQLenPdf::54                      0                       # What write queue length does an incoming req see
system.mem_ctrls.wrQLenPdf::55                      0                       # What write queue length does an incoming req see
system.mem_ctrls.wrQLenPdf::56                      0                       # What write queue length does an incoming req see
system.mem_ctrls.wrQLenPdf::57                      0                       # What write queue length does an incoming req see
system.mem_ctrls.wrQLenPdf::58                      0                       # What write queue length does an incoming req see
system.mem_ctrls.wrQLenPdf::59                      0                       # What write queue length does an incoming req see
system.mem_ctrls.wrQLenPdf::60                      0                       # What write queue length does an incoming req see
system.mem_ctrls.wrQLenPdf::61                      0                       # What write queue length does an incoming req see
system.mem_ctrls.wrQLenPdf::62                      0                       # What write queue length does an incoming req see
system.mem_ctrls.wrQLenPdf::63                      0                       # What write queue length does an incoming req see
system.mem_ctrls.bytesPerActivate::samples          485                       # Bytes accessed per row activation
system.mem_ctrls.bytesPerActivate::mean    204.008247                       # Bytes accessed per row activation
system.mem_ctrls.bytesPerActivate::gmean   145.772769                       # Bytes accessed per row activation
system.mem_ctrls.bytesPerActivate::stdev   192.306659                       # Bytes accessed per row activation
system.mem_ctrls.bytesPerActivate::0-127          178     36.70%     36.70% # Bytes accessed per row activation
system.mem_ctrls.bytesPerActivate::128-255          156     32.16%     68.87% # Bytes accessed per row activation
system.mem_ctrls.bytesPerActivate::256-383           70     14.43%     83.30% # Bytes accessed per row activation
system.mem_ctrls.bytesPerActivate::384-511           40      8.25%     91.55% # Bytes accessed per row activation
system.mem_ctrls.bytesPerActivate::512-639           15      3.09%     94.64% # Bytes accessed per row activation
system.mem_ctrls.bytesPerActivate::640-767           10      2.06%     96.70% # Bytes accessed per row activation
system.mem_ctrls.bytesPerActivate::768-895            9      1.86%     98.56% # Bytes accessed per row activation
system.mem_ctrls.bytesPerActivate::896-1023            2      0.41%     98.97% # Bytes accessed per row activation
system.mem_ctrls.bytesPerActivate::1024-1151            5      1.03%    100.00% # Bytes accessed per row activation
system.mem_ctrls.bytesPerActivate::total          485                       # Bytes accessed per row activation
system.mem_ctrls.totQLat                     15500495                       # Total ticks spent queuing
system.mem_ctrls.totMemAccLat                44581745                       # Total ticks spent from burst creation until serviced by the DRAM
system.mem_ctrls.totBusLat                    7755000                       # Total ticks spent in databus transfers
system.mem_ctrls.avgQLat                      9993.87                       # Average queueing delay per DRAM burst
system.mem_ctrls.avgBusLat                    5000.00                       # Average bus latency per DRAM burst
system.mem_ctrls.avgMemAccLat                28743.87                       # Average memory access latency per DRAM burst
system.mem_ctrls.avgRdBW                       149.62                       # Average DRAM read bandwidth in MiByte/s
system.mem_ctrls.avgWrBW                         0.00                       # Average achieved write bandwidth in MiByte/s
system.mem_ctrls.avgRdBWSys                    149.62                       # Average system read bandwidth in MiByte/s
system.mem_ctrls.avgWrBWSys                      0.00                       # Average system write bandwidth in MiByte/s
system.mem_ctrls.peakBW                      12800.00                       # Theoretical peak bandwidth in MiByte/s
system.mem_ctrls.busUtil                         1.17                       # Data bus utilization in percentage
system.mem_ctrls.busUtilRead                     1.17                       # Data bus utilization in percentage for reads
system.mem_ctrls.busUtilWrite                    0.00                       # Data bus utilization in percentage for writes
system.mem_ctrls.avgRdQLen                       1.00                       # Average read queue length when enqueuing
system.mem_ctrls.avgWrQLen                       0.00                       # Average write queue length when enqueuing
system.mem_ctrls.readRowHits                     1062                       # Number of row buffer hits during reads
system.mem_ctrls.writeRowHits                       0                       # Number of row buffer hits during writes
system.mem_ctrls.readRowHitRate                 68.47                       # Row buffer hit rate for reads
system.mem_ctrls.writeRowHitRate                  nan                       # Row buffer hit rate for writes
system.mem_ctrls.avgGap                     427608.64                       # Average gap between requests
system.mem_ctrls.pageHitRate                    68.47                       # Row buffer hit rate, read and write combined
system.mem_ctrls_0.actEnergy                  1391040                       # Energy for activate commands per rank (pJ)
system.mem_ctrls_0.preEnergy                   759000                       # Energy for precharge commands per rank (pJ)
system.mem_ctrls_0.readEnergy                 5335200                       # Energy for read commands per rank (pJ)
system.mem_ctrls_0.writeEnergy                      0                       # Energy for write commands per rank (pJ)
system.mem_ctrls_0.refreshEnergy             43227600                       # Energy for refresh commands per rank (pJ)
system.mem_ctrls_0.actBackEnergy            335485755                       # Energy for active background per rank (pJ)
system.mem_ctrls_0.preBackEnergy            102969000                       # Energy for precharge background per rank (pJ)
system.mem_ctrls_0.totalEnergy              489167595                       # Total energy per rank (pJ)
system.mem_ctrls_0.averagePower            738.822020                       # Core power per rank (mW)
system.mem_ctrls_0.memoryStateTime::IDLE    170399250                       # Time in different power states
system.mem_ctrls_0.memoryStateTime::REF      22100000                       # Time in different power states
system.mem_ctrls_0.memoryStateTime::PRE_PDN            0                       # Time in different power states
system.mem_ctrls_0.memoryStateTime::ACT     470741750                       # Time in different power states
system.mem_ctrls_0.memoryStateTime::ACT_PDN            0                       # Time in different power states
system.mem_ctrls_1.actEnergy                  2275560                       # Energy for activate commands per rank (pJ)
system.mem_ctrls_1.preEnergy                  1241625                       # Energy for precharge commands per rank (pJ)
system.mem_ctrls_1.readEnergy                 6723600                       # Energy for read commands per rank (pJ)
system.mem_ctrls_1.writeEnergy                      0                       # Energy for write commands per rank (pJ)
system.mem_ctrls_1.refreshEnergy             43227600                       # Energy for refresh commands per rank (pJ)
system.mem_ctrls_1.actBackEnergy            371983995                       # Energy for active background per rank (pJ)
system.mem_ctrls_1.preBackEnergy             70953000                       # Energy for precharge background per rank (pJ)
system.mem_ctrls_1.totalEnergy              496405380                       # Total energy per rank (pJ)
system.mem_ctrls_1.averagePower            749.753724                       # Core power per rank (mW)
system.mem_ctrls_1.memoryStateTime::IDLE    115859750                       # Time in different power states
system.mem_ctrls_1.memoryStateTime::REF      22100000                       # Time in different power states
system.mem_ctrls_1.memoryStateTime::PRE_PDN            0                       # Time in different power states
system.mem_ctrls_1.memoryStateTime::ACT     524145250                       # Time in different power states
system.mem_ctrls_1.memoryStateTime::ACT_PDN            0                       # Time in different power states
system.ruby.clk_domain.clock                      500                       # Clock period in ticks
system.ruby.phys_mem.bytes_read::cpu0.inst       696760                       # Number of bytes read from this memory
system.ruby.phys_mem.bytes_read::cpu0.data       119832                       # Number of bytes read from this memory
system.ruby.phys_mem.bytes_read::cpu1.CUs0.ComputeUnit         3280                       # Number of bytes read from this memory
system.ruby.phys_mem.bytes_read::cpu1.CUs1.ComputeUnit         3280                       # Number of bytes read from this memory
system.ruby.phys_mem.bytes_read::total         823152                       # Number of bytes read from this memory
system.ruby.phys_mem.bytes_inst_read::cpu0.inst       696760                       # Number of instructions bytes read from this memory
system.ruby.phys_mem.bytes_inst_read::cpu1.CUs0.ComputeUnit         2000                       # Number of instructions bytes read from this memory
system.ruby.phys_mem.bytes_inst_read::cpu1.CUs1.ComputeUnit         2000                       # Number of instructions bytes read from this memory
system.ruby.phys_mem.bytes_inst_read::total       700760                       # Number of instructions bytes read from this memory
system.ruby.phys_mem.bytes_written::cpu0.data        72767                       # Number of bytes written to this memory
system.ruby.phys_mem.bytes_written::cpu1.CUs0.ComputeUnit          256                       # Number of bytes written to this memory
system.ruby.phys_mem.bytes_written::cpu1.CUs1.ComputeUnit          256                       # Number of bytes written to this memory
system.ruby.phys_mem.bytes_written::total        73279                       # Number of bytes written to this memory
system.ruby.phys_mem.num_reads::cpu0.inst        87095                       # Number of read requests responded to by this memory
system.ruby.phys_mem.num_reads::cpu0.data        16686                       # Number of read requests responded to by this memory
system.ruby.phys_mem.num_reads::cpu1.CUs0.ComputeUnit          555                       # Number of read requests responded to by this memory
system.ruby.phys_mem.num_reads::cpu1.CUs1.ComputeUnit          555                       # Number of read requests responded to by this memory
system.ruby.phys_mem.num_reads::total          104891                       # Number of read requests responded to by this memory
system.ruby.phys_mem.num_writes::cpu0.data        10422                       # Number of write requests responded to by this memory
system.ruby.phys_mem.num_writes::cpu1.CUs0.ComputeUnit          256                       # Number of write requests responded to by this memory
system.ruby.phys_mem.num_writes::cpu1.CUs1.ComputeUnit          256                       # Number of write requests responded to by this memory
system.ruby.phys_mem.num_writes::total          10934                       # Number of write requests responded to by this memory
system.ruby.phys_mem.bw_read::cpu0.inst    1050200127                       # Total read bandwidth from this memory (bytes/s)
system.ruby.phys_mem.bw_read::cpu0.data     180618264                       # Total read bandwidth from this memory (bytes/s)
system.ruby.phys_mem.bw_read::cpu1.CUs0.ComputeUnit      4943821                       # Total read bandwidth from this memory (bytes/s)
system.ruby.phys_mem.bw_read::cpu1.CUs1.ComputeUnit      4943821                       # Total read bandwidth from this memory (bytes/s)
system.ruby.phys_mem.bw_read::total        1240706032                       # Total read bandwidth from this memory (bytes/s)
system.ruby.phys_mem.bw_inst_read::cpu0.inst   1050200127                       # Instruction read bandwidth from this memory (bytes/s)
system.ruby.phys_mem.bw_inst_read::cpu1.CUs0.ComputeUnit      3014525                       # Instruction read bandwidth from this memory (bytes/s)
system.ruby.phys_mem.bw_inst_read::cpu1.CUs1.ComputeUnit      3014525                       # Instruction read bandwidth from this memory (bytes/s)
system.ruby.phys_mem.bw_inst_read::total   1056229176                       # Instruction read bandwidth from this memory (bytes/s)
system.ruby.phys_mem.bw_write::cpu0.data    109678961                       # Write bandwidth from this memory (bytes/s)
system.ruby.phys_mem.bw_write::cpu1.CUs0.ComputeUnit       385859                       # Write bandwidth from this memory (bytes/s)
system.ruby.phys_mem.bw_write::cpu1.CUs1.ComputeUnit       385859                       # Write bandwidth from this memory (bytes/s)
system.ruby.phys_mem.bw_write::total        110450679                       # Write bandwidth from this memory (bytes/s)
system.ruby.phys_mem.bw_total::cpu0.inst   1050200127                       # Total bandwidth to/from this memory (bytes/s)
system.ruby.phys_mem.bw_total::cpu0.data    290297225                       # Total bandwidth to/from this memory (bytes/s)
system.ruby.phys_mem.bw_total::cpu1.CUs0.ComputeUnit      5329680                       # Total bandwidth to/from this memory (bytes/s)
system.ruby.phys_mem.bw_total::cpu1.CUs1.ComputeUnit      5329680                       # Total bandwidth to/from this memory (bytes/s)
system.ruby.phys_mem.bw_total::total       1351156711                       # Total bandwidth to/from this memory (bytes/s)
system.ruby.outstanding_req_hist_seqr::bucket_size            1                      
system.ruby.outstanding_req_hist_seqr::max_bucket            9                      
system.ruby.outstanding_req_hist_seqr::samples       114203                      
system.ruby.outstanding_req_hist_seqr::mean     1.000035                      
system.ruby.outstanding_req_hist_seqr::gmean     1.000024                      
system.ruby.outstanding_req_hist_seqr::stdev     0.005918                      
system.ruby.outstanding_req_hist_seqr    |           0      0.00%      0.00% |      114199    100.00%    100.00% |           4      0.00%    100.00% |           0      0.00%    100.00% |           0      0.00%    100.00% |           0      0.00%    100.00% |           0      0.00%    100.00% |           0      0.00%    100.00% |           0      0.00%    100.00% |           0      0.00%    100.00%
system.ruby.outstanding_req_hist_seqr::total       114203                      
system.ruby.outstanding_req_hist_coalsr::bucket_size            1                      
system.ruby.outstanding_req_hist_coalsr::max_bucket            9                      
system.ruby.outstanding_req_hist_coalsr::samples           27                      
system.ruby.outstanding_req_hist_coalsr::mean     1.629630                      
system.ruby.outstanding_req_hist_coalsr::gmean     1.438746                      
system.ruby.outstanding_req_hist_coalsr::stdev     0.926040                      
system.ruby.outstanding_req_hist_coalsr  |           0      0.00%      0.00% |          16     59.26%     59.26% |           7     25.93%     85.19% |           2      7.41%     92.59% |           2      7.41%    100.00% |           0      0.00%    100.00% |           0      0.00%    100.00% |           0      0.00%    100.00% |           0      0.00%    100.00% |           0      0.00%    100.00%
system.ruby.outstanding_req_hist_coalsr::total           27                      
system.ruby.latency_hist_seqr::bucket_size           64                      
system.ruby.latency_hist_seqr::max_bucket          639                      
system.ruby.latency_hist_seqr::samples         114203                      
system.ruby.latency_hist_seqr::mean          4.784165                      
system.ruby.latency_hist_seqr::gmean         2.131364                      
system.ruby.latency_hist_seqr::stdev        23.846473                      
system.ruby.latency_hist_seqr            |      112668     98.66%     98.66% |           0      0.00%     98.66% |           0      0.00%     98.66% |        1506      1.32%     99.97% |          19      0.02%     99.99% |          10      0.01%    100.00% |           0      0.00%    100.00% |           0      0.00%    100.00% |           0      0.00%    100.00% |           0      0.00%    100.00%
system.ruby.latency_hist_seqr::total           114203                      
system.ruby.latency_hist_coalsr::bucket_size           64                      
system.ruby.latency_hist_coalsr::max_bucket          639                      
system.ruby.latency_hist_coalsr::samples           27                      
system.ruby.latency_hist_coalsr::mean      141.296296                      
system.ruby.latency_hist_coalsr::gmean      21.202698                      
system.ruby.latency_hist_coalsr::stdev     140.217089                      
system.ruby.latency_hist_coalsr          |          13     48.15%     48.15% |           0      0.00%     48.15% |           0      0.00%     48.15% |          10     37.04%     85.19% |           1      3.70%     88.89% |           3     11.11%    100.00% |           0      0.00%    100.00% |           0      0.00%    100.00% |           0      0.00%    100.00% |           0      0.00%    100.00%
system.ruby.latency_hist_coalsr::total             27                      
system.ruby.hit_latency_hist_seqr::bucket_size           64                      
system.ruby.hit_latency_hist_seqr::max_bucket          639                      
system.ruby.hit_latency_hist_seqr::samples         1535                      
system.ruby.hit_latency_hist_seqr::mean    208.448208                      
system.ruby.hit_latency_hist_seqr::gmean   208.002202                      
system.ruby.hit_latency_hist_seqr::stdev    15.833423                      
system.ruby.hit_latency_hist_seqr        |           0      0.00%      0.00% |           0      0.00%      0.00% |           0      0.00%      0.00% |        1506     98.11%     98.11% |          19      1.24%     99.35% |          10      0.65%    100.00% |           0      0.00%    100.00% |           0      0.00%    100.00% |           0      0.00%    100.00% |           0      0.00%    100.00%
system.ruby.hit_latency_hist_seqr::total         1535                      
system.ruby.miss_latency_hist_seqr::bucket_size            4                      
system.ruby.miss_latency_hist_seqr::max_bucket           39                      
system.ruby.miss_latency_hist_seqr::samples       112668                      
system.ruby.miss_latency_hist_seqr::mean     2.009426                      
system.ruby.miss_latency_hist_seqr::gmean     2.002413                      
system.ruby.miss_latency_hist_seqr::stdev     0.411800                      
system.ruby.miss_latency_hist_seqr       |      112609     99.95%     99.95% |           0      0.00%     99.95% |           0      0.00%     99.95% |           0      0.00%     99.95% |           0      0.00%     99.95% |          59      0.05%    100.00% |           0      0.00%    100.00% |           0      0.00%    100.00% |           0      0.00%    100.00% |           0      0.00%    100.00%
system.ruby.miss_latency_hist_seqr::total       112668                      
system.ruby.miss_latency_hist_coalsr::bucket_size           64                      
system.ruby.miss_latency_hist_coalsr::max_bucket          639                      
system.ruby.miss_latency_hist_coalsr::samples           27                      
system.ruby.miss_latency_hist_coalsr::mean   141.296296                      
system.ruby.miss_latency_hist_coalsr::gmean    21.202698                      
system.ruby.miss_latency_hist_coalsr::stdev   140.217089                      
system.ruby.miss_latency_hist_coalsr     |          13     48.15%     48.15% |           0      0.00%     48.15% |           0      0.00%     48.15% |          10     37.04%     85.19% |           1      3.70%     88.89% |           3     11.11%    100.00% |           0      0.00%    100.00% |           0      0.00%    100.00% |           0      0.00%    100.00% |           0      0.00%    100.00%
system.ruby.miss_latency_hist_coalsr::total           27                      
system.ruby.L1Cache.incomplete_times_seqr       112609                      
system.ruby.L2Cache.incomplete_times_seqr           59                      
system.cp_cntrl0.L1D0cache.demand_hits              0                       # Number of cache demand hits
system.cp_cntrl0.L1D0cache.demand_misses          506                       # Number of cache demand misses
system.cp_cntrl0.L1D0cache.demand_accesses          506                       # Number of cache demand accesses
system.cp_cntrl0.L1D0cache.num_data_array_reads        16155                       # number of data array reads
system.cp_cntrl0.L1D0cache.num_data_array_writes        11985                       # number of data array writes
system.cp_cntrl0.L1D0cache.num_tag_array_reads        27132                       # number of tag array reads
system.cp_cntrl0.L1D0cache.num_tag_array_writes         1584                       # number of tag array writes
system.cp_cntrl0.L1D1cache.demand_hits              0                       # Number of cache demand hits
system.cp_cntrl0.L1D1cache.demand_misses            0                       # Number of cache demand misses
system.cp_cntrl0.L1D1cache.demand_accesses            0                       # Number of cache demand accesses
system.cp_cntrl0.L1Icache.demand_hits               0                       # Number of cache demand hits
system.cp_cntrl0.L1Icache.demand_misses          1088                       # Number of cache demand misses
system.cp_cntrl0.L1Icache.demand_accesses         1088                       # Number of cache demand accesses
system.cp_cntrl0.L1Icache.num_data_array_reads        86007                       # number of data array reads
system.cp_cntrl0.L1Icache.num_data_array_writes           54                       # number of data array writes
system.cp_cntrl0.L1Icache.num_tag_array_reads        87684                       # number of tag array reads
system.cp_cntrl0.L1Icache.num_tag_array_writes           54                       # number of tag array writes
system.cp_cntrl0.L2cache.demand_hits                0                       # Number of cache demand hits
system.cp_cntrl0.L2cache.demand_misses           1535                       # Number of cache demand misses
system.cp_cntrl0.L2cache.demand_accesses         1535                       # Number of cache demand accesses
system.cp_cntrl0.L2cache.num_data_array_reads          120                       # number of data array reads
system.cp_cntrl0.L2cache.num_data_array_writes        11982                       # number of data array writes
system.cp_cntrl0.L2cache.num_tag_array_reads        12059                       # number of tag array reads
system.cp_cntrl0.L2cache.num_tag_array_writes         1649                       # number of tag array writes
system.cpu0.clk_domain.clock                      500                       # Clock period in ticks
system.cpu0.apic_clk_domain.clock                8000                       # Clock period in ticks
system.cpu0.workload.num_syscalls                  21                       # Number of system calls
system.cpu0.numCycles                         1326909                       # number of cpu cycles simulated
system.cpu0.numWorkItemsStarted                     0                       # number of work items this cpu started
system.cpu0.numWorkItemsCompleted                   0                       # number of work items this cpu completed
system.cpu0.committedInsts                      66963                       # Number of instructions committed
system.cpu0.committedOps                       137705                       # Number of ops (including micro ops) committed
system.cpu0.num_int_alu_accesses               136380                       # Number of integer alu accesses
system.cpu0.num_fp_alu_accesses                  1279                       # Number of float alu accesses
system.cpu0.num_func_calls                       3196                       # number of times a function call or return occured
system.cpu0.num_conditional_control_insts        12151                       # number of instructions that are conditional controls
system.cpu0.num_int_insts                      136380                       # number of integer instructions
system.cpu0.num_fp_insts                         1279                       # number of float instructions
system.cpu0.num_int_register_reads             257490                       # number of times the integer registers were read
system.cpu0.num_int_register_writes            110039                       # number of times the integer registers were written
system.cpu0.num_fp_register_reads                1981                       # number of times the floating registers were read
system.cpu0.num_fp_register_writes                981                       # number of times the floating registers were written
system.cpu0.num_cc_register_reads               78262                       # number of times the CC registers were read
system.cpu0.num_cc_register_writes              42183                       # number of times the CC registers were written
system.cpu0.num_mem_refs                        27198                       # number of memory refs
system.cpu0.num_load_insts                      16684                       # Number of load instructions
system.cpu0.num_store_insts                     10514                       # Number of store instructions
system.cpu0.num_idle_cycles               5231.003992                       # Number of idle cycles
system.cpu0.num_busy_cycles              1321677.996008                       # Number of busy cycles
system.cpu0.not_idle_fraction                0.996058                       # Percentage of non-idle cycles
system.cpu0.idle_fraction                    0.003942                       # Percentage of idle cycles
system.cpu0.Branches                            16199                       # Number of branches fetched
system.cpu0.op_class::No_OpClass                  615      0.45%      0.45% # Class of executed instruction
system.cpu0.op_class::IntAlu                   108791     79.00%     79.45% # Class of executed instruction
system.cpu0.op_class::IntMult                      13      0.01%     79.46% # Class of executed instruction
system.cpu0.op_class::IntDiv                      138      0.10%     79.56% # Class of executed instruction
system.cpu0.op_class::FloatAdd                    950      0.69%     80.25% # Class of executed instruction
system.cpu0.op_class::FloatCmp                      0      0.00%     80.25% # Class of executed instruction
system.cpu0.op_class::FloatCvt                      0      0.00%     80.25% # Class of executed instruction
system.cpu0.op_class::FloatMult                     0      0.00%     80.25% # Class of executed instruction
system.cpu0.op_class::FloatDiv                      0      0.00%     80.25% # Class of executed instruction
system.cpu0.op_class::FloatSqrt                     0      0.00%     80.25% # Class of executed instruction
system.cpu0.op_class::SimdAdd                       0      0.00%     80.25% # Class of executed instruction
system.cpu0.op_class::SimdAddAcc                    0      0.00%     80.25% # Class of executed instruction
system.cpu0.op_class::SimdAlu                       0      0.00%     80.25% # Class of executed instruction
system.cpu0.op_class::SimdCmp                       0      0.00%     80.25% # Class of executed instruction
system.cpu0.op_class::SimdCvt                       0      0.00%     80.25% # Class of executed instruction
system.cpu0.op_class::SimdMisc                      0      0.00%     80.25% # Class of executed instruction
system.cpu0.op_class::SimdMult                      0      0.00%     80.25% # Class of executed instruction
system.cpu0.op_class::SimdMultAcc                   0      0.00%     80.25% # Class of executed instruction
system.cpu0.op_class::SimdShift                     0      0.00%     80.25% # Class of executed instruction
system.cpu0.op_class::SimdShiftAcc                  0      0.00%     80.25% # Class of executed instruction
system.cpu0.op_class::SimdSqrt                      0      0.00%     80.25% # Class of executed instruction
system.cpu0.op_class::SimdFloatAdd                  0      0.00%     80.25% # Class of executed instruction
system.cpu0.op_class::SimdFloatAlu                  0      0.00%     80.25% # Class of executed instruction
system.cpu0.op_class::SimdFloatCmp                  0      0.00%     80.25% # Class of executed instruction
system.cpu0.op_class::SimdFloatCvt                  0      0.00%     80.25% # Class of executed instruction
system.cpu0.op_class::SimdFloatDiv                  0      0.00%     80.25% # Class of executed instruction
system.cpu0.op_class::SimdFloatMisc                 0      0.00%     80.25% # Class of executed instruction
system.cpu0.op_class::SimdFloatMult                 0      0.00%     80.25% # Class of executed instruction
system.cpu0.op_class::SimdFloatMultAcc              0      0.00%     80.25% # Class of executed instruction
system.cpu0.op_class::SimdFloatSqrt                 0      0.00%     80.25% # Class of executed instruction
system.cpu0.op_class::MemRead                   16684     12.12%     92.36% # Class of executed instruction
system.cpu0.op_class::MemWrite                  10514      7.64%    100.00% # Class of executed instruction
system.cpu0.op_class::IprAccess                     0      0.00%    100.00% # Class of executed instruction
system.cpu0.op_class::InstPrefetch                  0      0.00%    100.00% # Class of executed instruction
system.cpu0.op_class::total                    137705                       # Class of executed instruction
system.cpu1.clk_domain.voltage_domain.voltage            1                       # Voltage in Volts
system.cpu1.clk_domain.clock                     1000                       # Clock period in ticks
system.cpu1.CUs0.wavefronts00.timesBlockedDueVrfPortAvail            0                       # number of times instructions are blocked due to VRF port availability
system.cpu1.CUs0.wavefronts00.timesBlockedDueWAXDependencies            0                       # number of times the wf's instructions are blocked due to WAW or WAR dependencies
system.cpu1.CUs0.wavefronts00.timesBlockedDueRAWDependencies          307                       # number of times the wf's instructions are blocked due to RAW dependencies
system.cpu1.CUs0.wavefronts00.src_reg_operand_dist::samples           39                       # number of executed instructions with N source register operands
system.cpu1.CUs0.wavefronts00.src_reg_operand_dist::mean     0.794872                       # number of executed instructions with N source register operands
system.cpu1.CUs0.wavefronts00.src_reg_operand_dist::stdev     0.863880                       # number of executed instructions with N source register operands
system.cpu1.CUs0.wavefronts00.src_reg_operand_dist::underflows            0      0.00%      0.00% # number of executed instructions with N source register operands
system.cpu1.CUs0.wavefronts00.src_reg_operand_dist::0-1           28     71.79%     71.79% # number of executed instructions with N source register operands
system.cpu1.CUs0.wavefronts00.src_reg_operand_dist::2-3           11     28.21%    100.00% # number of executed instructions with N source register operands
system.cpu1.CUs0.wavefronts00.src_reg_operand_dist::4            0      0.00%    100.00% # number of executed instructions with N source register operands
system.cpu1.CUs0.wavefronts00.src_reg_operand_dist::overflows            0      0.00%    100.00% # number of executed instructions with N source register operands
system.cpu1.CUs0.wavefronts00.src_reg_operand_dist::min_value            0                       # number of executed instructions with N source register operands
system.cpu1.CUs0.wavefronts00.src_reg_operand_dist::max_value            2                       # number of executed instructions with N source register operands
system.cpu1.CUs0.wavefronts00.src_reg_operand_dist::total           39                       # number of executed instructions with N source register operands
system.cpu1.CUs0.wavefronts00.dst_reg_operand_dist::samples           39                       # number of executed instructions with N destination register operands
system.cpu1.CUs0.wavefronts00.dst_reg_operand_dist::mean     0.589744                       # number of executed instructions with N destination register operands
system.cpu1.CUs0.wavefronts00.dst_reg_operand_dist::stdev     0.498310                       # number of executed instructions with N destination register operands
system.cpu1.CUs0.wavefronts00.dst_reg_operand_dist::underflows            0      0.00%      0.00% # number of executed instructions with N destination register operands
system.cpu1.CUs0.wavefronts00.dst_reg_operand_dist::0-1           39    100.00%    100.00% # number of executed instructions with N destination register operands
system.cpu1.CUs0.wavefronts00.dst_reg_operand_dist::2-3            0      0.00%    100.00% # number of executed instructions with N destination register operands
system.cpu1.CUs0.wavefronts00.dst_reg_operand_dist::overflows            0      0.00%    100.00% # number of executed instructions with N destination register operands
system.cpu1.CUs0.wavefronts00.dst_reg_operand_dist::min_value            0                       # number of executed instructions with N destination register operands
system.cpu1.CUs0.wavefronts00.dst_reg_operand_dist::max_value            1                       # number of executed instructions with N destination register operands
system.cpu1.CUs0.wavefronts00.dst_reg_operand_dist::total           39                       # number of executed instructions with N destination register operands
system.cpu1.CUs0.wavefronts01.timesBlockedDueVrfPortAvail            0                       # number of times instructions are blocked due to VRF port availability
system.cpu1.CUs0.wavefronts01.timesBlockedDueWAXDependencies            0                       # number of times the wf's instructions are blocked due to WAW or WAR dependencies
system.cpu1.CUs0.wavefronts01.timesBlockedDueRAWDependencies            0                       # number of times the wf's instructions are blocked due to RAW dependencies
system.cpu1.CUs0.wavefronts01.src_reg_operand_dist::samples            0                       # number of executed instructions with N source register operands
system.cpu1.CUs0.wavefronts01.src_reg_operand_dist::mean          nan                       # number of executed instructions with N source register operands
system.cpu1.CUs0.wavefronts01.src_reg_operand_dist::stdev          nan                       # number of executed instructions with N source register operands
system.cpu1.CUs0.wavefronts01.src_reg_operand_dist::underflows            0                       # number of executed instructions with N source register operands
system.cpu1.CUs0.wavefronts01.src_reg_operand_dist::0-1            0                       # number of executed instructions with N source register operands
system.cpu1.CUs0.wavefronts01.src_reg_operand_dist::2-3            0                       # number of executed instructions with N source register operands
system.cpu1.CUs0.wavefronts01.src_reg_operand_dist::4            0                       # number of executed instructions with N source register operands
system.cpu1.CUs0.wavefronts01.src_reg_operand_dist::overflows            0                       # number of executed instructions with N source register operands
system.cpu1.CUs0.wavefronts01.src_reg_operand_dist::min_value            0                       # number of executed instructions with N source register operands
system.cpu1.CUs0.wavefronts01.src_reg_operand_dist::max_value            0                       # number of executed instructions with N source register operands
system.cpu1.CUs0.wavefronts01.src_reg_operand_dist::total            0                       # number of executed instructions with N source register operands
system.cpu1.CUs0.wavefronts01.dst_reg_operand_dist::samples            0                       # number of executed instructions with N destination register operands
system.cpu1.CUs0.wavefronts01.dst_reg_operand_dist::mean          nan                       # number of executed instructions with N destination register operands
system.cpu1.CUs0.wavefronts01.dst_reg_operand_dist::stdev          nan                       # number of executed instructions with N destination register operands
system.cpu1.CUs0.wavefronts01.dst_reg_operand_dist::underflows            0                       # number of executed instructions with N destination register operands
system.cpu1.CUs0.wavefronts01.dst_reg_operand_dist::0-1            0                       # number of executed instructions with N destination register operands
system.cpu1.CUs0.wavefronts01.dst_reg_operand_dist::2-3            0                       # number of executed instructions with N destination register operands
system.cpu1.CUs0.wavefronts01.dst_reg_operand_dist::overflows            0                       # number of executed instructions with N destination register operands
system.cpu1.CUs0.wavefronts01.dst_reg_operand_dist::min_value            0                       # number of executed instructions with N destination register operands
system.cpu1.CUs0.wavefronts01.dst_reg_operand_dist::max_value            0                       # number of executed instructions with N destination register operands
system.cpu1.CUs0.wavefronts01.dst_reg_operand_dist::total            0                       # number of executed instructions with N destination register operands
system.cpu1.CUs0.wavefronts02.timesBlockedDueVrfPortAvail            0                       # number of times instructions are blocked due to VRF port availability
system.cpu1.CUs0.wavefronts02.timesBlockedDueWAXDependencies            0                       # number of times the wf's instructions are blocked due to WAW or WAR dependencies
system.cpu1.CUs0.wavefronts02.timesBlockedDueRAWDependencies            0                       # number of times the wf's instructions are blocked due to RAW dependencies
system.cpu1.CUs0.wavefronts02.src_reg_operand_dist::samples            0                       # number of executed instructions with N source register operands
system.cpu1.CUs0.wavefronts02.src_reg_operand_dist::mean          nan                       # number of executed instructions with N source register operands
system.cpu1.CUs0.wavefronts02.src_reg_operand_dist::stdev          nan                       # number of executed instructions with N source register operands
system.cpu1.CUs0.wavefronts02.src_reg_operand_dist::underflows            0                       # number of executed instructions with N source register operands
system.cpu1.CUs0.wavefronts02.src_reg_operand_dist::0-1            0                       # number of executed instructions with N source register operands
system.cpu1.CUs0.wavefronts02.src_reg_operand_dist::2-3            0                       # number of executed instructions with N source register operands
system.cpu1.CUs0.wavefronts02.src_reg_operand_dist::4            0                       # number of executed instructions with N source register operands
system.cpu1.CUs0.wavefronts02.src_reg_operand_dist::overflows            0                       # number of executed instructions with N source register operands
system.cpu1.CUs0.wavefronts02.src_reg_operand_dist::min_value            0                       # number of executed instructions with N source register operands
system.cpu1.CUs0.wavefronts02.src_reg_operand_dist::max_value            0                       # number of executed instructions with N source register operands
system.cpu1.CUs0.wavefronts02.src_reg_operand_dist::total            0                       # number of executed instructions with N source register operands
system.cpu1.CUs0.wavefronts02.dst_reg_operand_dist::samples            0                       # number of executed instructions with N destination register operands
system.cpu1.CUs0.wavefronts02.dst_reg_operand_dist::mean          nan                       # number of executed instructions with N destination register operands
system.cpu1.CUs0.wavefronts02.dst_reg_operand_dist::stdev          nan                       # number of executed instructions with N destination register operands
system.cpu1.CUs0.wavefronts02.dst_reg_operand_dist::underflows            0                       # number of executed instructions with N destination register operands
system.cpu1.CUs0.wavefronts02.dst_reg_operand_dist::0-1            0                       # number of executed instructions with N destination register operands
system.cpu1.CUs0.wavefronts02.dst_reg_operand_dist::2-3            0                       # number of executed instructions with N destination register operands
system.cpu1.CUs0.wavefronts02.dst_reg_operand_dist::overflows            0                       # number of executed instructions with N destination register operands
system.cpu1.CUs0.wavefronts02.dst_reg_operand_dist::min_value            0                       # number of executed instructions with N destination register operands
system.cpu1.CUs0.wavefronts02.dst_reg_operand_dist::max_value            0                       # number of executed instructions with N destination register operands
system.cpu1.CUs0.wavefronts02.dst_reg_operand_dist::total            0                       # number of executed instructions with N destination register operands
system.cpu1.CUs0.wavefronts03.timesBlockedDueVrfPortAvail            0                       # number of times instructions are blocked due to VRF port availability
system.cpu1.CUs0.wavefronts03.timesBlockedDueWAXDependencies            0                       # number of times the wf's instructions are blocked due to WAW or WAR dependencies
system.cpu1.CUs0.wavefronts03.timesBlockedDueRAWDependencies            0                       # number of times the wf's instructions are blocked due to RAW dependencies
system.cpu1.CUs0.wavefronts03.src_reg_operand_dist::samples            0                       # number of executed instructions with N source register operands
system.cpu1.CUs0.wavefronts03.src_reg_operand_dist::mean          nan                       # number of executed instructions with N source register operands
system.cpu1.CUs0.wavefronts03.src_reg_operand_dist::stdev          nan                       # number of executed instructions with N source register operands
system.cpu1.CUs0.wavefronts03.src_reg_operand_dist::underflows            0                       # number of executed instructions with N source register operands
system.cpu1.CUs0.wavefronts03.src_reg_operand_dist::0-1            0                       # number of executed instructions with N source register operands
system.cpu1.CUs0.wavefronts03.src_reg_operand_dist::2-3            0                       # number of executed instructions with N source register operands
system.cpu1.CUs0.wavefronts03.src_reg_operand_dist::4            0                       # number of executed instructions with N source register operands
system.cpu1.CUs0.wavefronts03.src_reg_operand_dist::overflows            0                       # number of executed instructions with N source register operands
system.cpu1.CUs0.wavefronts03.src_reg_operand_dist::min_value            0                       # number of executed instructions with N source register operands
system.cpu1.CUs0.wavefronts03.src_reg_operand_dist::max_value            0                       # number of executed instructions with N source register operands
system.cpu1.CUs0.wavefronts03.src_reg_operand_dist::total            0                       # number of executed instructions with N source register operands
system.cpu1.CUs0.wavefronts03.dst_reg_operand_dist::samples            0                       # number of executed instructions with N destination register operands
system.cpu1.CUs0.wavefronts03.dst_reg_operand_dist::mean          nan                       # number of executed instructions with N destination register operands
system.cpu1.CUs0.wavefronts03.dst_reg_operand_dist::stdev          nan                       # number of executed instructions with N destination register operands
system.cpu1.CUs0.wavefronts03.dst_reg_operand_dist::underflows            0                       # number of executed instructions with N destination register operands
system.cpu1.CUs0.wavefronts03.dst_reg_operand_dist::0-1            0                       # number of executed instructions with N destination register operands
system.cpu1.CUs0.wavefronts03.dst_reg_operand_dist::2-3            0                       # number of executed instructions with N destination register operands
system.cpu1.CUs0.wavefronts03.dst_reg_operand_dist::overflows            0                       # number of executed instructions with N destination register operands
system.cpu1.CUs0.wavefronts03.dst_reg_operand_dist::min_value            0                       # number of executed instructions with N destination register operands
system.cpu1.CUs0.wavefronts03.dst_reg_operand_dist::max_value            0                       # number of executed instructions with N destination register operands
system.cpu1.CUs0.wavefronts03.dst_reg_operand_dist::total            0                       # number of executed instructions with N destination register operands
system.cpu1.CUs0.wavefronts04.timesBlockedDueVrfPortAvail            0                       # number of times instructions are blocked due to VRF port availability
system.cpu1.CUs0.wavefronts04.timesBlockedDueWAXDependencies            0                       # number of times the wf's instructions are blocked due to WAW or WAR dependencies
system.cpu1.CUs0.wavefronts04.timesBlockedDueRAWDependencies            0                       # number of times the wf's instructions are blocked due to RAW dependencies
system.cpu1.CUs0.wavefronts04.src_reg_operand_dist::samples            0                       # number of executed instructions with N source register operands
system.cpu1.CUs0.wavefronts04.src_reg_operand_dist::mean          nan                       # number of executed instructions with N source register operands
system.cpu1.CUs0.wavefronts04.src_reg_operand_dist::stdev          nan                       # number of executed instructions with N source register operands
system.cpu1.CUs0.wavefronts04.src_reg_operand_dist::underflows            0                       # number of executed instructions with N source register operands
system.cpu1.CUs0.wavefronts04.src_reg_operand_dist::0-1            0                       # number of executed instructions with N source register operands
system.cpu1.CUs0.wavefronts04.src_reg_operand_dist::2-3            0                       # number of executed instructions with N source register operands
system.cpu1.CUs0.wavefronts04.src_reg_operand_dist::4            0                       # number of executed instructions with N source register operands
system.cpu1.CUs0.wavefronts04.src_reg_operand_dist::overflows            0                       # number of executed instructions with N source register operands
system.cpu1.CUs0.wavefronts04.src_reg_operand_dist::min_value            0                       # number of executed instructions with N source register operands
system.cpu1.CUs0.wavefronts04.src_reg_operand_dist::max_value            0                       # number of executed instructions with N source register operands
system.cpu1.CUs0.wavefronts04.src_reg_operand_dist::total            0                       # number of executed instructions with N source register operands
system.cpu1.CUs0.wavefronts04.dst_reg_operand_dist::samples            0                       # number of executed instructions with N destination register operands
system.cpu1.CUs0.wavefronts04.dst_reg_operand_dist::mean          nan                       # number of executed instructions with N destination register operands
system.cpu1.CUs0.wavefronts04.dst_reg_operand_dist::stdev          nan                       # number of executed instructions with N destination register operands
system.cpu1.CUs0.wavefronts04.dst_reg_operand_dist::underflows            0                       # number of executed instructions with N destination register operands
system.cpu1.CUs0.wavefronts04.dst_reg_operand_dist::0-1            0                       # number of executed instructions with N destination register operands
system.cpu1.CUs0.wavefronts04.dst_reg_operand_dist::2-3            0                       # number of executed instructions with N destination register operands
system.cpu1.CUs0.wavefronts04.dst_reg_operand_dist::overflows            0                       # number of executed instructions with N destination register operands
system.cpu1.CUs0.wavefronts04.dst_reg_operand_dist::min_value            0                       # number of executed instructions with N destination register operands
system.cpu1.CUs0.wavefronts04.dst_reg_operand_dist::max_value            0                       # number of executed instructions with N destination register operands
system.cpu1.CUs0.wavefronts04.dst_reg_operand_dist::total            0                       # number of executed instructions with N destination register operands
system.cpu1.CUs0.wavefronts05.timesBlockedDueVrfPortAvail            0                       # number of times instructions are blocked due to VRF port availability
system.cpu1.CUs0.wavefronts05.timesBlockedDueWAXDependencies            0                       # number of times the wf's instructions are blocked due to WAW or WAR dependencies
system.cpu1.CUs0.wavefronts05.timesBlockedDueRAWDependencies            0                       # number of times the wf's instructions are blocked due to RAW dependencies
system.cpu1.CUs0.wavefronts05.src_reg_operand_dist::samples            0                       # number of executed instructions with N source register operands
system.cpu1.CUs0.wavefronts05.src_reg_operand_dist::mean          nan                       # number of executed instructions with N source register operands
system.cpu1.CUs0.wavefronts05.src_reg_operand_dist::stdev          nan                       # number of executed instructions with N source register operands
system.cpu1.CUs0.wavefronts05.src_reg_operand_dist::underflows            0                       # number of executed instructions with N source register operands
system.cpu1.CUs0.wavefronts05.src_reg_operand_dist::0-1            0                       # number of executed instructions with N source register operands
system.cpu1.CUs0.wavefronts05.src_reg_operand_dist::2-3            0                       # number of executed instructions with N source register operands
system.cpu1.CUs0.wavefronts05.src_reg_operand_dist::4            0                       # number of executed instructions with N source register operands
system.cpu1.CUs0.wavefronts05.src_reg_operand_dist::overflows            0                       # number of executed instructions with N source register operands
system.cpu1.CUs0.wavefronts05.src_reg_operand_dist::min_value            0                       # number of executed instructions with N source register operands
system.cpu1.CUs0.wavefronts05.src_reg_operand_dist::max_value            0                       # number of executed instructions with N source register operands
system.cpu1.CUs0.wavefronts05.src_reg_operand_dist::total            0                       # number of executed instructions with N source register operands
system.cpu1.CUs0.wavefronts05.dst_reg_operand_dist::samples            0                       # number of executed instructions with N destination register operands
system.cpu1.CUs0.wavefronts05.dst_reg_operand_dist::mean          nan                       # number of executed instructions with N destination register operands
system.cpu1.CUs0.wavefronts05.dst_reg_operand_dist::stdev          nan                       # number of executed instructions with N destination register operands
system.cpu1.CUs0.wavefronts05.dst_reg_operand_dist::underflows            0                       # number of executed instructions with N destination register operands
system.cpu1.CUs0.wavefronts05.dst_reg_operand_dist::0-1            0                       # number of executed instructions with N destination register operands
system.cpu1.CUs0.wavefronts05.dst_reg_operand_dist::2-3            0                       # number of executed instructions with N destination register operands
system.cpu1.CUs0.wavefronts05.dst_reg_operand_dist::overflows            0                       # number of executed instructions with N destination register operands
system.cpu1.CUs0.wavefronts05.dst_reg_operand_dist::min_value            0                       # number of executed instructions with N destination register operands
system.cpu1.CUs0.wavefronts05.dst_reg_operand_dist::max_value            0                       # number of executed instructions with N destination register operands
system.cpu1.CUs0.wavefronts05.dst_reg_operand_dist::total            0                       # number of executed instructions with N destination register operands
system.cpu1.CUs0.wavefronts06.timesBlockedDueVrfPortAvail            0                       # number of times instructions are blocked due to VRF port availability
system.cpu1.CUs0.wavefronts06.timesBlockedDueWAXDependencies            0                       # number of times the wf's instructions are blocked due to WAW or WAR dependencies
system.cpu1.CUs0.wavefronts06.timesBlockedDueRAWDependencies            0                       # number of times the wf's instructions are blocked due to RAW dependencies
system.cpu1.CUs0.wavefronts06.src_reg_operand_dist::samples            0                       # number of executed instructions with N source register operands
system.cpu1.CUs0.wavefronts06.src_reg_operand_dist::mean          nan                       # number of executed instructions with N source register operands
system.cpu1.CUs0.wavefronts06.src_reg_operand_dist::stdev          nan                       # number of executed instructions with N source register operands
system.cpu1.CUs0.wavefronts06.src_reg_operand_dist::underflows            0                       # number of executed instructions with N source register operands
system.cpu1.CUs0.wavefronts06.src_reg_operand_dist::0-1            0                       # number of executed instructions with N source register operands
system.cpu1.CUs0.wavefronts06.src_reg_operand_dist::2-3            0                       # number of executed instructions with N source register operands
system.cpu1.CUs0.wavefronts06.src_reg_operand_dist::4            0                       # number of executed instructions with N source register operands
system.cpu1.CUs0.wavefronts06.src_reg_operand_dist::overflows            0                       # number of executed instructions with N source register operands
system.cpu1.CUs0.wavefronts06.src_reg_operand_dist::min_value            0                       # number of executed instructions with N source register operands
system.cpu1.CUs0.wavefronts06.src_reg_operand_dist::max_value            0                       # number of executed instructions with N source register operands
system.cpu1.CUs0.wavefronts06.src_reg_operand_dist::total            0                       # number of executed instructions with N source register operands
system.cpu1.CUs0.wavefronts06.dst_reg_operand_dist::samples            0                       # number of executed instructions with N destination register operands
system.cpu1.CUs0.wavefronts06.dst_reg_operand_dist::mean          nan                       # number of executed instructions with N destination register operands
system.cpu1.CUs0.wavefronts06.dst_reg_operand_dist::stdev          nan                       # number of executed instructions with N destination register operands
system.cpu1.CUs0.wavefronts06.dst_reg_operand_dist::underflows            0                       # number of executed instructions with N destination register operands
system.cpu1.CUs0.wavefronts06.dst_reg_operand_dist::0-1            0                       # number of executed instructions with N destination register operands
system.cpu1.CUs0.wavefronts06.dst_reg_operand_dist::2-3            0                       # number of executed instructions with N destination register operands
system.cpu1.CUs0.wavefronts06.dst_reg_operand_dist::overflows            0                       # number of executed instructions with N destination register operands
system.cpu1.CUs0.wavefronts06.dst_reg_operand_dist::min_value            0                       # number of executed instructions with N destination register operands
system.cpu1.CUs0.wavefronts06.dst_reg_operand_dist::max_value            0                       # number of executed instructions with N destination register operands
system.cpu1.CUs0.wavefronts06.dst_reg_operand_dist::total            0                       # number of executed instructions with N destination register operands
system.cpu1.CUs0.wavefronts07.timesBlockedDueVrfPortAvail            0                       # number of times instructions are blocked due to VRF port availability
system.cpu1.CUs0.wavefronts07.timesBlockedDueWAXDependencies            0                       # number of times the wf's instructions are blocked due to WAW or WAR dependencies
system.cpu1.CUs0.wavefronts07.timesBlockedDueRAWDependencies            0                       # number of times the wf's instructions are blocked due to RAW dependencies
system.cpu1.CUs0.wavefronts07.src_reg_operand_dist::samples            0                       # number of executed instructions with N source register operands
system.cpu1.CUs0.wavefronts07.src_reg_operand_dist::mean          nan                       # number of executed instructions with N source register operands
system.cpu1.CUs0.wavefronts07.src_reg_operand_dist::stdev          nan                       # number of executed instructions with N source register operands
system.cpu1.CUs0.wavefronts07.src_reg_operand_dist::underflows            0                       # number of executed instructions with N source register operands
system.cpu1.CUs0.wavefronts07.src_reg_operand_dist::0-1            0                       # number of executed instructions with N source register operands
system.cpu1.CUs0.wavefronts07.src_reg_operand_dist::2-3            0                       # number of executed instructions with N source register operands
system.cpu1.CUs0.wavefronts07.src_reg_operand_dist::4            0                       # number of executed instructions with N source register operands
system.cpu1.CUs0.wavefronts07.src_reg_operand_dist::overflows            0                       # number of executed instructions with N source register operands
[...]
system.ruby.ST.L1Cache.miss_type_mach_latency_hist_seqr::total        10090                      
system.ruby.ST.Directory.hit_type_mach_latency_hist_seqr::bucket_size           64                      
system.ruby.ST.Directory.hit_type_mach_latency_hist_seqr::max_bucket          639                      
system.ruby.ST.Directory.hit_type_mach_latency_hist_seqr::samples          322                      
system.ruby.ST.Directory.hit_type_mach_latency_hist_seqr::mean   208.484472                      
system.ruby.ST.Directory.hit_type_mach_latency_hist_seqr::gmean   208.014366                      
system.ruby.ST.Directory.hit_type_mach_latency_hist_seqr::stdev    16.327683                      
system.ruby.ST.Directory.hit_type_mach_latency_hist_seqr |           0      0.00%      0.00% |           0      0.00%      0.00% |           0      0.00%      0.00% |         316     98.14%     98.14% |           3      0.93%     99.07% |           3      0.93%    100.00% |           0      0.00%    100.00% |           0      0.00%    100.00% |           0      0.00%    100.00% |           0      0.00%    100.00%
system.ruby.ST.Directory.hit_type_mach_latency_hist_seqr::total          322                      
system.ruby.ST.TCP.miss_type_mach_latency_hist_coalsr::bucket_size            1                      
system.ruby.ST.TCP.miss_type_mach_latency_hist_coalsr::max_bucket            9                      
system.ruby.ST.TCP.miss_type_mach_latency_hist_coalsr::samples            8                      
system.ruby.ST.TCP.miss_type_mach_latency_hist_coalsr::mean            1                      
system.ruby.ST.TCP.miss_type_mach_latency_hist_coalsr::gmean            1                      
system.ruby.ST.TCP.miss_type_mach_latency_hist_coalsr |           0      0.00%      0.00% |           8    100.00%    100.00% |           0      0.00%    100.00% |           0      0.00%    100.00% |           0      0.00%    100.00% |           0      0.00%    100.00% |           0      0.00%    100.00% |           0      0.00%    100.00% |           0      0.00%    100.00% |           0      0.00%    100.00%
system.ruby.ST.TCP.miss_type_mach_latency_hist_coalsr::total            8                      
system.ruby.ST.TCCdir.miss_type_mach_latency_hist_coalsr::bucket_size           32                      
system.ruby.ST.TCCdir.miss_type_mach_latency_hist_coalsr::max_bucket          319                      
system.ruby.ST.TCCdir.miss_type_mach_latency_hist_coalsr::samples            8                      
system.ruby.ST.TCCdir.miss_type_mach_latency_hist_coalsr::mean   248.875000                      
system.ruby.ST.TCCdir.miss_type_mach_latency_hist_coalsr::gmean   248.864382                      
system.ruby.ST.TCCdir.miss_type_mach_latency_hist_coalsr::stdev     2.474874                      
system.ruby.ST.TCCdir.miss_type_mach_latency_hist_coalsr |           0      0.00%      0.00% |           0      0.00%      0.00% |           0      0.00%      0.00% |           0      0.00%      0.00% |           0      0.00%      0.00% |           0      0.00%      0.00% |           0      0.00%      0.00% |           8    100.00%    100.00% |           0      0.00%    100.00% |           0      0.00%    100.00%
system.ruby.ST.TCCdir.miss_type_mach_latency_hist_coalsr::total            8                      
system.ruby.ATOMIC.L1Cache_wCC.miss_type_mach_latency_hist_coalsr::bucket_size           64                      
system.ruby.ATOMIC.L1Cache_wCC.miss_type_mach_latency_hist_coalsr::max_bucket          639                      
system.ruby.ATOMIC.L1Cache_wCC.miss_type_mach_latency_hist_coalsr::samples            1                      
system.ruby.ATOMIC.L1Cache_wCC.miss_type_mach_latency_hist_coalsr::mean          352                      
system.ruby.ATOMIC.L1Cache_wCC.miss_type_mach_latency_hist_coalsr::gmean   352.000000                      
system.ruby.ATOMIC.L1Cache_wCC.miss_type_mach_latency_hist_coalsr::stdev          nan                      
system.ruby.ATOMIC.L1Cache_wCC.miss_type_mach_latency_hist_coalsr |           0      0.00%      0.00% |           0      0.00%      0.00% |           0      0.00%      0.00% |           0      0.00%      0.00% |           0      0.00%      0.00% |           1    100.00%    100.00% |           0      0.00%    100.00% |           0      0.00%    100.00% |           0      0.00%    100.00% |           0      0.00%    100.00%
system.ruby.ATOMIC.L1Cache_wCC.miss_type_mach_latency_hist_coalsr::total            1                      
system.ruby.ATOMIC.TCCdir.miss_type_mach_latency_hist_coalsr::bucket_size           32                      
system.ruby.ATOMIC.TCCdir.miss_type_mach_latency_hist_coalsr::max_bucket          319                      
system.ruby.ATOMIC.TCCdir.miss_type_mach_latency_hist_coalsr::samples            1                      
system.ruby.ATOMIC.TCCdir.miss_type_mach_latency_hist_coalsr::mean          267                      
system.ruby.ATOMIC.TCCdir.miss_type_mach_latency_hist_coalsr::gmean   267.000000                      
system.ruby.ATOMIC.TCCdir.miss_type_mach_latency_hist_coalsr::stdev          nan                      
system.ruby.ATOMIC.TCCdir.miss_type_mach_latency_hist_coalsr |           0      0.00%      0.00% |           0      0.00%      0.00% |           0      0.00%      0.00% |           0      0.00%      0.00% |           0      0.00%      0.00% |           0      0.00%      0.00% |           0      0.00%      0.00% |           0      0.00%      0.00% |           1    100.00%    100.00% |           0      0.00%    100.00%
system.ruby.ATOMIC.TCCdir.miss_type_mach_latency_hist_coalsr::total            1                      
system.ruby.IFETCH.L1Cache.miss_type_mach_latency_hist_seqr::bucket_size            1                      
system.ruby.IFETCH.L1Cache.miss_type_mach_latency_hist_seqr::max_bucket            9                      
system.ruby.IFETCH.L1Cache.miss_type_mach_latency_hist_seqr::samples        86007                      
system.ruby.IFETCH.L1Cache.miss_type_mach_latency_hist_seqr::mean            2                      
system.ruby.IFETCH.L1Cache.miss_type_mach_latency_hist_seqr::gmean     2.000000                      
system.ruby.IFETCH.L1Cache.miss_type_mach_latency_hist_seqr |           0      0.00%      0.00% |           0      0.00%      0.00% |       86007    100.00%    100.00% |           0      0.00%    100.00% |           0      0.00%    100.00% |           0      0.00%    100.00% |           0      0.00%    100.00% |           0      0.00%    100.00% |           0      0.00%    100.00% |           0      0.00%    100.00%
system.ruby.IFETCH.L1Cache.miss_type_mach_latency_hist_seqr::total        86007                      
system.ruby.IFETCH.L2Cache.miss_type_mach_latency_hist_seqr::bucket_size            4                      
system.ruby.IFETCH.L2Cache.miss_type_mach_latency_hist_seqr::max_bucket           39                      
system.ruby.IFETCH.L2Cache.miss_type_mach_latency_hist_seqr::samples           54                      
system.ruby.IFETCH.L2Cache.miss_type_mach_latency_hist_seqr::mean           20                      
system.ruby.IFETCH.L2Cache.miss_type_mach_latency_hist_seqr::gmean    20.000000                      
system.ruby.IFETCH.L2Cache.miss_type_mach_latency_hist_seqr |           0      0.00%      0.00% |           0      0.00%      0.00% |           0      0.00%      0.00% |           0      0.00%      0.00% |           0      0.00%      0.00% |          54    100.00%    100.00% |           0      0.00%    100.00% |           0      0.00%    100.00% |           0      0.00%    100.00% |           0      0.00%    100.00%
system.ruby.IFETCH.L2Cache.miss_type_mach_latency_hist_seqr::total           54                      
system.ruby.IFETCH.Directory.hit_type_mach_latency_hist_seqr::bucket_size           64                      
system.ruby.IFETCH.Directory.hit_type_mach_latency_hist_seqr::max_bucket          639                      
system.ruby.IFETCH.Directory.hit_type_mach_latency_hist_seqr::samples         1034                      
system.ruby.IFETCH.Directory.hit_type_mach_latency_hist_seqr::mean   208.442940                      
system.ruby.IFETCH.Directory.hit_type_mach_latency_hist_seqr::gmean   207.967489                      
system.ruby.IFETCH.Directory.hit_type_mach_latency_hist_seqr::stdev    16.443135                      
system.ruby.IFETCH.Directory.hit_type_mach_latency_hist_seqr |           0      0.00%      0.00% |           0      0.00%      0.00% |           0      0.00%      0.00% |        1011     97.78%     97.78% |          16      1.55%     99.32% |           7      0.68%    100.00% |           0      0.00%    100.00% |           0      0.00%    100.00% |           0      0.00%    100.00% |           0      0.00%    100.00%
system.ruby.IFETCH.Directory.hit_type_mach_latency_hist_seqr::total         1034                      
system.ruby.RMW_Read.L1Cache.miss_type_mach_latency_hist_seqr::bucket_size            1                      
system.ruby.RMW_Read.L1Cache.miss_type_mach_latency_hist_seqr::max_bucket            9                      
system.ruby.RMW_Read.L1Cache.miss_type_mach_latency_hist_seqr::samples          337                      
system.ruby.RMW_Read.L1Cache.miss_type_mach_latency_hist_seqr::mean            2                      
system.ruby.RMW_Read.L1Cache.miss_type_mach_latency_hist_seqr::gmean     2.000000                      
system.ruby.RMW_Read.L1Cache.miss_type_mach_latency_hist_seqr |           0      0.00%      0.00% |           0      0.00%      0.00% |         337    100.00%    100.00% |           0      0.00%    100.00% |           0      0.00%    100.00% |           0      0.00%    100.00% |           0      0.00%    100.00% |           0      0.00%    100.00% |           0      0.00%    100.00% |           0      0.00%    100.00%
system.ruby.RMW_Read.L1Cache.miss_type_mach_latency_hist_seqr::total          337                      
system.ruby.RMW_Read.Directory.hit_type_mach_latency_hist_seqr::bucket_size           32                      
system.ruby.RMW_Read.Directory.hit_type_mach_latency_hist_seqr::max_bucket          319                      
system.ruby.RMW_Read.Directory.hit_type_mach_latency_hist_seqr::samples            4                      
system.ruby.RMW_Read.Directory.hit_type_mach_latency_hist_seqr::mean          206                      
system.ruby.RMW_Read.Directory.hit_type_mach_latency_hist_seqr::gmean   206.000000                      
system.ruby.RMW_Read.Directory.hit_type_mach_latency_hist_seqr |           0      0.00%      0.00% |           0      0.00%      0.00% |           0      0.00%      0.00% |           0      0.00%      0.00% |           0      0.00%      0.00% |           0      0.00%      0.00% |           4    100.00%    100.00% |           0      0.00%    100.00% |           0      0.00%    100.00% |           0      0.00%    100.00%
system.ruby.RMW_Read.Directory.hit_type_mach_latency_hist_seqr::total            4                      
system.ruby.Locked_RMW_Read.L1Cache.miss_type_mach_latency_hist_seqr::bucket_size            1                      
system.ruby.Locked_RMW_Read.L1Cache.miss_type_mach_latency_hist_seqr::max_bucket            9                      
system.ruby.Locked_RMW_Read.L1Cache.miss_type_mach_latency_hist_seqr::samples           10                      
system.ruby.Locked_RMW_Read.L1Cache.miss_type_mach_latency_hist_seqr::mean            2                      
system.ruby.Locked_RMW_Read.L1Cache.miss_type_mach_latency_hist_seqr::gmean            2                      
system.ruby.Locked_RMW_Read.L1Cache.miss_type_mach_latency_hist_seqr |           0      0.00%      0.00% |           0      0.00%      0.00% |          10    100.00%    100.00% |           0      0.00%    100.00% |           0      0.00%    100.00% |           0      0.00%    100.00% |           0      0.00%    100.00% |           0      0.00%    100.00% |           0      0.00%    100.00% |           0      0.00%    100.00%
system.ruby.Locked_RMW_Read.L1Cache.miss_type_mach_latency_hist_seqr::total           10                      
system.ruby.Locked_RMW_Write.L1Cache.miss_type_mach_latency_hist_seqr::bucket_size            1                      
system.ruby.Locked_RMW_Write.L1Cache.miss_type_mach_latency_hist_seqr::max_bucket            9                      
system.ruby.Locked_RMW_Write.L1Cache.miss_type_mach_latency_hist_seqr::samples           10                      
system.ruby.Locked_RMW_Write.L1Cache.miss_type_mach_latency_hist_seqr::mean            2                      
system.ruby.Locked_RMW_Write.L1Cache.miss_type_mach_latency_hist_seqr::gmean            2                      
system.ruby.Locked_RMW_Write.L1Cache.miss_type_mach_latency_hist_seqr |           0      0.00%      0.00% |           0      0.00%      0.00% |          10    100.00%    100.00% |           0      0.00%    100.00% |           0      0.00%    100.00% |           0      0.00%    100.00% |           0      0.00%    100.00% |           0      0.00%    100.00% |           0      0.00%    100.00% |           0      0.00%    100.00%
system.ruby.Locked_RMW_Write.L1Cache.miss_type_mach_latency_hist_seqr::total           10                      
system.ruby.SQC_Controller.Fetch                   86      0.00%      0.00%
system.ruby.SQC_Controller.TCC_AckS                 5      0.00%      0.00%
system.ruby.SQC_Controller.I.Fetch                  5      0.00%      0.00%
system.ruby.SQC_Controller.S.Fetch                 81      0.00%      0.00%
system.ruby.SQC_Controller.I_S.TCC_AckS             5      0.00%      0.00%
system.ruby.TCCdir_Controller.RdBlk                54      0.00%      0.00%
system.ruby.TCCdir_Controller.RdBlkM               36      0.00%      0.00%
system.ruby.TCCdir_Controller.RdBlkS                5      0.00%      0.00%
system.ruby.TCCdir_Controller.CPUPrbResp           14      0.00%      0.00%
system.ruby.TCCdir_Controller.ProbeAcksComplete           13      0.00%      0.00%
system.ruby.TCCdir_Controller.CoreUnblock           17      0.00%      0.00%
system.ruby.TCCdir_Controller.LastCoreUnblock            2      0.00%      0.00%
system.ruby.TCCdir_Controller.NB_AckS               7      0.00%      0.00%
system.ruby.TCCdir_Controller.NB_AckM               9      0.00%      0.00%
system.ruby.TCCdir_Controller.PrbInvData          326      0.00%      0.00%
system.ruby.TCCdir_Controller.PrbShrData         1209      0.00%      0.00%
system.ruby.TCCdir_Controller.I.RdBlk               2      0.00%      0.00%
system.ruby.TCCdir_Controller.I.RdBlkM              9      0.00%      0.00%
system.ruby.TCCdir_Controller.I.RdBlkS              5      0.00%      0.00%
system.ruby.TCCdir_Controller.I.PrbInvData          325      0.00%      0.00%
system.ruby.TCCdir_Controller.I.PrbShrData         1200      0.00%      0.00%
system.ruby.TCCdir_Controller.S.RdBlk               2      0.00%      0.00%
system.ruby.TCCdir_Controller.S.PrbInvData            1      0.00%      0.00%
system.ruby.TCCdir_Controller.M.RdBlkM              1      0.00%      0.00%
system.ruby.TCCdir_Controller.M.PrbShrData            9      0.00%      0.00%
system.ruby.TCCdir_Controller.CP_I.CPUPrbResp            2      0.00%      0.00%
system.ruby.TCCdir_Controller.CP_I.ProbeAcksComplete            1      0.00%      0.00%
system.ruby.TCCdir_Controller.CP_O.CPUPrbResp            9      0.00%      0.00%
system.ruby.TCCdir_Controller.CP_O.ProbeAcksComplete            9      0.00%      0.00%
system.ruby.TCCdir_Controller.I_M.RdBlkM           22      0.00%      0.00%
system.ruby.TCCdir_Controller.I_M.NB_AckM            9      0.00%      0.00%
system.ruby.TCCdir_Controller.I_ES.RdBlk           41      0.00%      0.00%
system.ruby.TCCdir_Controller.I_ES.NB_AckS            2      0.00%      0.00%
system.ruby.TCCdir_Controller.I_S.NB_AckS            5      0.00%      0.00%
system.ruby.TCCdir_Controller.BBS_S.CPUPrbResp            2      0.00%      0.00%
system.ruby.TCCdir_Controller.BBS_S.ProbeAcksComplete            2      0.00%      0.00%
system.ruby.TCCdir_Controller.BBM_M.CPUPrbResp            1      0.00%      0.00%
system.ruby.TCCdir_Controller.BBM_M.ProbeAcksComplete            1      0.00%      0.00%
system.ruby.TCCdir_Controller.BB_M.CoreUnblock            1      0.00%      0.00%
system.ruby.TCCdir_Controller.BB_S.LastCoreUnblock            2      0.00%      0.00%
system.ruby.TCCdir_Controller.BBB_S.RdBlk            9      0.00%      0.00%
system.ruby.TCCdir_Controller.BBB_S.CoreUnblock            7      0.00%      0.00%
system.ruby.TCCdir_Controller.BBB_M.RdBlkM            4      0.00%      0.00%
system.ruby.TCCdir_Controller.BBB_M.CoreUnblock            9      0.00%      0.00%
system.ruby.TCP_Controller.Load          |           4     44.44%     44.44% |           5     55.56%    100.00%
system.ruby.TCP_Controller.Load::total              9                      
system.ruby.TCP_Controller.Store         |           9     50.00%     50.00% |           9     50.00%    100.00%
system.ruby.TCP_Controller.Store::total            18                      
system.ruby.TCP_Controller.TCC_AckS      |           2     50.00%     50.00% |           2     50.00%    100.00%
system.ruby.TCP_Controller.TCC_AckS::total            4                      
system.ruby.TCP_Controller.TCC_AckM      |           5     50.00%     50.00% |           5     50.00%    100.00%
system.ruby.TCP_Controller.TCC_AckM::total           10                      
system.ruby.TCP_Controller.PrbInvData    |           1     33.33%     33.33% |           2     66.67%    100.00%
system.ruby.TCP_Controller.PrbInvData::total            3                      
system.ruby.TCP_Controller.PrbShrData    |           7     63.64%     63.64% |           4     36.36%    100.00%
system.ruby.TCP_Controller.PrbShrData::total           11                      
system.ruby.TCP_Controller.I.Load        |           2     50.00%     50.00% |           2     50.00%    100.00%
system.ruby.TCP_Controller.I.Load::total            4                      
system.ruby.TCP_Controller.I.Store       |           5     50.00%     50.00% |           5     50.00%    100.00%
system.ruby.TCP_Controller.I.Store::total           10                      
system.ruby.TCP_Controller.S.Load        |           2     40.00%     40.00% |           3     60.00%    100.00%
system.ruby.TCP_Controller.S.Load::total            5                      
system.ruby.TCP_Controller.S.PrbInvData  |           1     50.00%     50.00% |           1     50.00%    100.00%
system.ruby.TCP_Controller.S.PrbInvData::total            2                      
system.ruby.TCP_Controller.S.PrbShrData  |           2    100.00%    100.00% |           0      0.00%    100.00%
system.ruby.TCP_Controller.S.PrbShrData::total            2                      
system.ruby.TCP_Controller.M.Store       |           4     50.00%     50.00% |           4     50.00%    100.00%
system.ruby.TCP_Controller.M.Store::total            8                      
system.ruby.TCP_Controller.M.PrbInvData  |           0      0.00%      0.00% |           1    100.00%    100.00%
system.ruby.TCP_Controller.M.PrbInvData::total            1                      
system.ruby.TCP_Controller.M.PrbShrData  |           5     55.56%     55.56% |           4     44.44%    100.00%
system.ruby.TCP_Controller.M.PrbShrData::total            9                      
system.ruby.TCP_Controller.I_M.TCC_AckM  |           5     50.00%     50.00% |           5     50.00%    100.00%
system.ruby.TCP_Controller.I_M.TCC_AckM::total           10                      
system.ruby.TCP_Controller.I_ES.TCC_AckS |           2     50.00%     50.00% |           2     50.00%    100.00%
system.ruby.TCP_Controller.I_ES.TCC_AckS::total            4                      

---------- End Simulation Statistics   ----------
