
---------- Begin Simulation Statistics ----------
sim_seconds                                  0.000360                       # Number of seconds simulated
sim_ticks                                   360138000                       # Number of ticks simulated
final_tick                               2267563624500                       # Number of ticks from beginning of simulation (restored from checkpoints and never reset)
sim_freq                                 1000000000000                       # Frequency of simulated ticks
host_inst_rate                              480980551                       # Simulator instruction rate (inst/s)
host_op_rate                                480963700                       # Simulator op (including micro ops) rate (op/s)
host_tick_rate                              930118555                       # Simulator tick rate (ticks/s)
host_mem_usage                                 823456                       # Number of bytes of host memory used
host_seconds                                     0.39                       # Real time elapsed on the host
sim_insts                                   186221186                       # Number of instructions simulated
sim_ops                                     186221186                       # Number of ops (including micro ops) simulated
system.voltage_domain.voltage                       1                       # Voltage in Volts
system.clk_domain.clock                          1000                       # Clock period in ticks
system.mem_ctrls.bytes_read::switch_cpus04.inst       124032                       # Number of bytes read from this memory
system.mem_ctrls.bytes_read::switch_cpus04.data       210624                       # Number of bytes read from this memory
system.mem_ctrls.bytes_read::switch_cpus05.inst        35072                       # Number of bytes read from this memory
system.mem_ctrls.bytes_read::switch_cpus05.data        82688                       # Number of bytes read from this memory
system.mem_ctrls.bytes_read::switch_cpus06.inst       108352                       # Number of bytes read from this memory
system.mem_ctrls.bytes_read::switch_cpus06.data       594048                       # Number of bytes read from this memory
system.mem_ctrls.bytes_read::switch_cpus15.data           64                       # Number of bytes read from this memory
system.mem_ctrls.bytes_read::total            1154880                       # Number of bytes read from this memory
system.mem_ctrls.bytes_inst_read::switch_cpus04.inst       124032                       # Number of instructions bytes read from this memory
system.mem_ctrls.bytes_inst_read::switch_cpus05.inst        35072                       # Number of instructions bytes read from this memory
system.mem_ctrls.bytes_inst_read::switch_cpus06.inst       108352                       # Number of instructions bytes read from this memory
system.mem_ctrls.bytes_inst_read::total        267456                       # Number of instructions bytes read from this memory
system.mem_ctrls.bytes_written::writebacks       573120                       # Number of bytes written to this memory
system.mem_ctrls.bytes_written::total          573120                       # Number of bytes written to this memory
system.mem_ctrls.num_reads::switch_cpus04.inst         1938                       # Number of read requests responded to by this memory
system.mem_ctrls.num_reads::switch_cpus04.data         3291                       # Number of read requests responded to by this memory
system.mem_ctrls.num_reads::switch_cpus05.inst          548                       # Number of read requests responded to by this memory
system.mem_ctrls.num_reads::switch_cpus05.data         1292                       # Number of read requests responded to by this memory
system.mem_ctrls.num_reads::switch_cpus06.inst         1693                       # Number of read requests responded to by this memory
system.mem_ctrls.num_reads::switch_cpus06.data         9282                       # Number of read requests responded to by this memory
system.mem_ctrls.num_reads::switch_cpus15.data            1                       # Number of read requests responded to by this memory
system.mem_ctrls.num_reads::total               18045                       # Number of read requests responded to by this memory
system.mem_ctrls.num_writes::writebacks          8955                       # Number of write requests responded to by this memory
system.mem_ctrls.num_writes::total               8955                       # Number of write requests responded to by this memory
system.mem_ctrls.bw_read::switch_cpus04.inst    344401313                       # Total read bandwidth from this memory (bytes/s)
system.mem_ctrls.bw_read::switch_cpus04.data    584842477                       # Total read bandwidth from this memory (bytes/s)
system.mem_ctrls.bw_read::switch_cpus05.inst     97384891                       # Total read bandwidth from this memory (bytes/s)
system.mem_ctrls.bw_read::switch_cpus05.data    229600875                       # Total read bandwidth from this memory (bytes/s)
system.mem_ctrls.bw_read::switch_cpus06.inst    300862447                       # Total read bandwidth from this memory (bytes/s)
system.mem_ctrls.bw_read::switch_cpus06.data   1649501025                       # Total read bandwidth from this memory (bytes/s)
system.mem_ctrls.bw_read::switch_cpus15.data       177710                       # Total read bandwidth from this memory (bytes/s)
system.mem_ctrls.bw_read::total            3206770738                       # Total read bandwidth from this memory (bytes/s)
system.mem_ctrls.bw_inst_read::switch_cpus04.inst    344401313                       # Instruction read bandwidth from this memory (bytes/s)
system.mem_ctrls.bw_inst_read::switch_cpus05.inst     97384891                       # Instruction read bandwidth from this memory (bytes/s)
system.mem_ctrls.bw_inst_read::switch_cpus06.inst    300862447                       # Instruction read bandwidth from this memory (bytes/s)
system.mem_ctrls.bw_inst_read::total        742648651                       # Instruction read bandwidth from this memory (bytes/s)
system.mem_ctrls.bw_write::writebacks      1591389967                       # Write bandwidth from this memory (bytes/s)
system.mem_ctrls.bw_write::total           1591389967                       # Write bandwidth from this memory (bytes/s)
system.mem_ctrls.bw_total::writebacks      1591389967                       # Total bandwidth to/from this memory (bytes/s)
system.mem_ctrls.bw_total::switch_cpus04.inst    344401313                       # Total bandwidth to/from this memory (bytes/s)
system.mem_ctrls.bw_total::switch_cpus04.data    584842477                       # Total bandwidth to/from this memory (bytes/s)
system.mem_ctrls.bw_total::switch_cpus05.inst     97384891                       # Total bandwidth to/from this memory (bytes/s)
system.mem_ctrls.bw_total::switch_cpus05.data    229600875                       # Total bandwidth to/from this memory (bytes/s)
system.mem_ctrls.bw_total::switch_cpus06.inst    300862447                       # Total bandwidth to/from this memory (bytes/s)
system.mem_ctrls.bw_total::switch_cpus06.data   1649501025                       # Total bandwidth to/from this memory (bytes/s)
system.mem_ctrls.bw_total::switch_cpus15.data       177710                       # Total bandwidth to/from this memory (bytes/s)
system.mem_ctrls.bw_total::total           4798160705                       # Total bandwidth to/from this memory (bytes/s)
system.mem_ctrls.readReqs                           0                       # Number of read requests accepted
system.mem_ctrls.writeReqs                          0                       # Number of write requests accepted
system.mem_ctrls.readBursts                         0                       # Number of DRAM read bursts, including those serviced by the write queue
system.mem_ctrls.writeBursts                        0                       # Number of DRAM write bursts, including those merged in the write queue
system.mem_ctrls.bytesReadDRAM                      0                       # Total number of bytes read from DRAM
system.mem_ctrls.bytesReadWrQ                       0                       # Total number of bytes read from write queue
system.mem_ctrls.bytesWritten                       0                       # Total number of bytes written to DRAM
system.mem_ctrls.bytesReadSys                       0                       # Total read bytes from the system interface side
system.mem_ctrls.bytesWrittenSys                    0                       # Total written bytes from the system interface side
system.mem_ctrls.servicedByWrQ                      0                       # Number of DRAM read bursts serviced by the write queue
system.mem_ctrls.mergedWrBursts                     0                       # Number of DRAM write bursts merged with an existing one
system.mem_ctrls.neitherReadNorWriteReqs            0                       # Number of requests that are neither read nor write
system.mem_ctrls.perBankRdBursts::0                 0                       # Per bank write bursts
system.mem_ctrls.perBankRdBursts::1                 0                       # Per bank write bursts
system.mem_ctrls.perBankRdBursts::2                 0                       # Per bank write bursts
system.mem_ctrls.perBankRdBursts::3                 0                       # Per bank write bursts
system.mem_ctrls.perBankRdBursts::4                 0                       # Per bank write bursts
system.mem_ctrls.perBankRdBursts::5                 0                       # Per bank write bursts
system.mem_ctrls.perBankRdBursts::6                 0                       # Per bank write bursts
system.mem_ctrls.perBankRdBursts::7                 0                       # Per bank write bursts
system.mem_ctrls.perBankRdBursts::8                 0                       # Per bank write bursts
system.mem_ctrls.perBankRdBursts::9                 0                       # Per bank write bursts
system.mem_ctrls.perBankRdBursts::10                0                       # Per bank write bursts
system.mem_ctrls.perBankRdBursts::11                0                       # Per bank write bursts
system.mem_ctrls.perBankRdBursts::12                0                       # Per bank write bursts
system.mem_ctrls.perBankRdBursts::13                0                       # Per bank write bursts
system.mem_ctrls.perBankRdBursts::14                0                       # Per bank write bursts
system.mem_ctrls.perBankRdBursts::15                0                       # Per bank write bursts
system.mem_ctrls.perBankWrBursts::0                 0                       # Per bank write bursts
system.mem_ctrls.perBankWrBursts::1                 0                       # Per bank write bursts
system.mem_ctrls.perBankWrBursts::2                 0                       # Per bank write bursts
system.mem_ctrls.perBankWrBursts::3                 0                       # Per bank write bursts
system.mem_ctrls.perBankWrBursts::4                 0                       # Per bank write bursts
system.mem_ctrls.perBankWrBursts::5                 0                       # Per bank write bursts
system.mem_ctrls.perBankWrBursts::6                 0                       # Per bank write bursts
system.mem_ctrls.perBankWrBursts::7                 0                       # Per bank write bursts
system.mem_ctrls.perBankWrBursts::8                 0                       # Per bank write bursts
system.mem_ctrls.perBankWrBursts::9                 0                       # Per bank write bursts
system.mem_ctrls.perBankWrBursts::10                0                       # Per bank write bursts
system.mem_ctrls.perBankWrBursts::11                0                       # Per bank write bursts
system.mem_ctrls.perBankWrBursts::12                0                       # Per bank write bursts
system.mem_ctrls.perBankWrBursts::13                0                       # Per bank write bursts
system.mem_ctrls.perBankWrBursts::14                0                       # Per bank write bursts
system.mem_ctrls.perBankWrBursts::15                0                       # Per bank write bursts
system.mem_ctrls.numRdRetry                         0                       # Number of times read queue was full causing retry
system.mem_ctrls.numWrRetry                         0                       # Number of times write queue was full causing retry
system.mem_ctrls.totGap                             0                       # Total gap between requests
system.mem_ctrls.readPktSize::0                     0                       # Read request sizes (log2)
system.mem_ctrls.readPktSize::1                     0                       # Read request sizes (log2)
system.mem_ctrls.readPktSize::2                     0                       # Read request sizes (log2)
system.mem_ctrls.readPktSize::3                     0                       # Read request sizes (log2)
system.mem_ctrls.readPktSize::4                     0                       # Read request sizes (log2)
system.mem_ctrls.readPktSize::5                     0                       # Read request sizes (log2)
system.mem_ctrls.readPktSize::6                     0                       # Read request sizes (log2)
system.mem_ctrls.writePktSize::0                    0                       # Write request sizes (log2)
system.mem_ctrls.writePktSize::1                    0                       # Write request sizes (log2)
system.mem_ctrls.writePktSize::2                    0                       # Write request sizes (log2)
system.mem_ctrls.writePktSize::3                    0                       # Write request sizes (log2)
system.mem_ctrls.writePktSize::4                    0                       # Write request sizes (log2)
system.mem_ctrls.writePktSize::5                    0                       # Write request sizes (log2)
system.mem_ctrls.writePktSize::6                    0                       # Write request sizes (log2)
system.mem_ctrls.rdQLenPdf::0                       0                       # What read queue length does an incoming req see
system.mem_ctrls.rdQLenPdf::1                       0                       # What read queue length does an incoming req see
system.mem_ctrls.rdQLenPdf::2                       0                       # What read queue length does an incoming req see
system.mem_ctrls.rdQLenPdf::3                       0                       # What read queue length does an incoming req see
system.mem_ctrls.rdQLenPdf::4                       0                       # What read queue length does an incoming req see
system.mem_ctrls.rdQLenPdf::5                       0                       # What read queue length does an incoming req see
system.mem_ctrls.rdQLenPdf::6                       0                       # What read queue length does an incoming req see
system.mem_ctrls.rdQLenPdf::7                       0                       # What read queue length does an incoming req see
system.mem_ctrls.rdQLenPdf::8                       0                       # What read queue length does an incoming req see
system.mem_ctrls.rdQLenPdf::9                       0                       # What read queue length does an incoming req see
system.mem_ctrls.rdQLenPdf::10                      0                       # What read queue length does an incoming req see
system.mem_ctrls.rdQLenPdf::11                      0                       # What read queue length does an incoming req see
system.mem_ctrls.rdQLenPdf::12                      0                       # What read queue length does an incoming req see
system.mem_ctrls.rdQLenPdf::13                      0                       # What read queue length does an incoming req see
system.mem_ctrls.rdQLenPdf::14                      0                       # What read queue length does an incoming req see
system.mem_ctrls.rdQLenPdf::15                      0                       # What read queue length does an incoming req see
system.mem_ctrls.rdQLenPdf::16                      0                       # What read queue length does an incoming req see
system.mem_ctrls.rdQLenPdf::17                      0                       # What read queue length does an incoming req see
system.mem_ctrls.rdQLenPdf::18                      0                       # What read queue length does an incoming req see
system.mem_ctrls.rdQLenPdf::19                      0                       # What read queue length does an incoming req see
system.mem_ctrls.rdQLenPdf::20                      0                       # What read queue length does an incoming req see
system.mem_ctrls.rdQLenPdf::21                      0                       # What read queue length does an incoming req see
system.mem_ctrls.rdQLenPdf::22                      0                       # What read queue length does an incoming req see
system.mem_ctrls.rdQLenPdf::23                      0                       # What read queue length does an incoming req see
system.mem_ctrls.rdQLenPdf::24                      0                       # What read queue length does an incoming req see
system.mem_ctrls.rdQLenPdf::25                      0                       # What read queue length does an incoming req see
system.mem_ctrls.rdQLenPdf::26                      0                       # What read queue length does an incoming req see
system.mem_ctrls.rdQLenPdf::27                      0                       # What read queue length does an incoming req see
system.mem_ctrls.rdQLenPdf::28                      0                       # What read queue length does an incoming req see
system.mem_ctrls.rdQLenPdf::29                      0                       # What read queue length does an incoming req see
system.mem_ctrls.rdQLenPdf::30                      0                       # What read queue length does an incoming req see
system.mem_ctrls.rdQLenPdf::31                      0                       # What read queue length does an incoming req see
system.mem_ctrls.wrQLenPdf::0                       0                       # What write queue length does an incoming req see
system.mem_ctrls.wrQLenPdf::1                       0                       # What write queue length does an incoming req see
system.mem_ctrls.wrQLenPdf::2                       0                       # What write queue length does an incoming req see
system.mem_ctrls.wrQLenPdf::3                       0                       # What write queue length does an incoming req see
system.mem_ctrls.wrQLenPdf::4                       0                       # What write queue length does an incoming req see
system.mem_ctrls.wrQLenPdf::5                       0                       # What write queue length does an incoming req see
system.mem_ctrls.wrQLenPdf::6                       0                       # What write queue length does an incoming req see
system.mem_ctrls.wrQLenPdf::7                       0                       # What write queue length does an incoming req see
system.mem_ctrls.wrQLenPdf::8                       0                       # What write queue length does an incoming req see
system.mem_ctrls.wrQLenPdf::9                       0                       # What write queue length does an incoming req see
system.mem_ctrls.wrQLenPdf::10                      0                       # What write queue length does an incoming req see
system.mem_ctrls.wrQLenPdf::11                      0                       # What write queue length does an incoming req see
system.mem_ctrls.wrQLenPdf::12                      0                       # What write queue length does an incoming req see
system.mem_ctrls.wrQLenPdf::13                      0                       # What write queue length does an incoming req see
system.mem_ctrls.wrQLenPdf::14                      0                       # What write queue length does an incoming req see
system.mem_ctrls.wrQLenPdf::15                      0                       # What write queue length does an incoming req see
system.mem_ctrls.wrQLenPdf::16                      0                       # What write queue length does an incoming req see
system.mem_ctrls.wrQLenPdf::17                      0                       # What write queue length does an incoming req see
system.mem_ctrls.wrQLenPdf::18                      0                       # What write queue length does an incoming req see
system.mem_ctrls.wrQLenPdf::19                      0                       # What write queue length does an incoming req see
system.mem_ctrls.wrQLenPdf::20                      0                       # What write queue length does an incoming req see
system.mem_ctrls.wrQLenPdf::21                      0                       # What write queue length does an incoming req see
system.mem_ctrls.wrQLenPdf::22                      0                       # What write queue length does an incoming req see
system.mem_ctrls.wrQLenPdf::23                      0                       # What write queue length does an incoming req see
system.mem_ctrls.wrQLenPdf::24                      0                       # What write queue length does an incoming req see
system.mem_ctrls.wrQLenPdf::25                      0                       # What write queue length does an incoming req see
system.mem_ctrls.wrQLenPdf::26                      0                       # What write queue length does an incoming req see
system.mem_ctrls.wrQLenPdf::27                      0                       # What write queue length does an incoming req see
system.mem_ctrls.wrQLenPdf::28                      0                       # What write queue length does an incoming req see
system.mem_ctrls.wrQLenPdf::29                      0                       # What write queue length does an incoming req see
system.mem_ctrls.wrQLenPdf::30                      0                       # What write queue length does an incoming req see
system.mem_ctrls.wrQLenPdf::31                      0                       # What write queue length does an incoming req see
system.mem_ctrls.wrQLenPdf::32                      0                       # What write queue length does an incoming req see
system.mem_ctrls.wrQLenPdf::33                      0                       # What write queue length does an incoming req see
system.mem_ctrls.wrQLenPdf::34                      0                       # What write queue length does an incoming req see
system.mem_ctrls.wrQLenPdf::35                      0                       # What write queue length does an incoming req see
system.mem_ctrls.wrQLenPdf::36                      0                       # What write queue length does an incoming req see
system.mem_ctrls.wrQLenPdf::37                      0                       # What write queue length does an incoming req see
system.mem_ctrls.wrQLenPdf::38                      0                       # What write queue length does an incoming req see
system.mem_ctrls.wrQLenPdf::39                      0                       # What write queue length does an incoming req see
system.mem_ctrls.wrQLenPdf::40                      0                       # What write queue length does an incoming req see
system.mem_ctrls.wrQLenPdf::41                      0                       # What write queue length does an incoming req see
system.mem_ctrls.wrQLenPdf::42                      0                       # What write queue length does an incoming req see
system.mem_ctrls.wrQLenPdf::43                      0                       # What write queue length does an incoming req see
system.mem_ctrls.wrQLenPdf::44                      0                       # What write queue length does an incoming req see
system.mem_ctrls.wrQLenPdf::45                      0                       # What write queue length does an incoming req see
system.mem_ctrls.wrQLenPdf::46                      0                       # What write queue length does an incoming req see
system.mem_ctrls.wrQLenPdf::47                      0                       # What write queue length does an incoming req see
system.mem_ctrls.wrQLenPdf::48                      0                       # What write queue length does an incoming req see
system.mem_ctrls.wrQLenPdf::49                      0                       # What write queue length does an incoming req see
system.mem_ctrls.wrQLenPdf::50                      0                       # What write queue length does an incoming req see
system.mem_ctrls.wrQLenPdf::51                      0                       # What write queue length does an incoming req see
system.mem_ctrls.wrQLenPdf::52                      0                       # What write queue length does an incoming req see
system.mem_ctrls.wrQLenPdf::53                      0                       # What write queue length does an incoming req see
system.mem_ctrls.wrQLenPdf::54                      0                       # What write queue length does an incoming req see
system.mem_ctrls.wrQLenPdf::55                      0                       # What write queue length does an incoming req see
system.mem_ctrls.wrQLenPdf::56                      0                       # What write queue length does an incoming req see
system.mem_ctrls.wrQLenPdf::57                      0                       # What write queue length does an incoming req see
system.mem_ctrls.wrQLenPdf::58                      0                       # What write queue length does an incoming req see
system.mem_ctrls.wrQLenPdf::59                      0                       # What write queue length does an incoming req see
system.mem_ctrls.wrQLenPdf::60                      0                       # What write queue length does an incoming req see
system.mem_ctrls.wrQLenPdf::61                      0                       # What write queue length does an incoming req see
system.mem_ctrls.wrQLenPdf::62                      0                       # What write queue length does an incoming req see
system.mem_ctrls.wrQLenPdf::63                      0                       # What write queue length does an incoming req see
system.mem_ctrls.totQLat                            0                       # Total ticks spent queuing
system.mem_ctrls.totMemAccLat                       0                       # Total ticks spent from burst creation until serviced by the DRAM
system.mem_ctrls.totBusLat                          0                       # Total ticks spent in databus transfers
system.mem_ctrls.avgQLat                          nan                       # Average queueing delay per DRAM burst
system.mem_ctrls.avgBusLat                        nan                       # Average bus latency per DRAM burst
system.mem_ctrls.avgMemAccLat                     nan                       # Average memory access latency per DRAM burst
system.mem_ctrls.avgRdBW                         0.00                       # Average DRAM read bandwidth in MiByte/s
system.mem_ctrls.avgWrBW                         0.00                       # Average achieved write bandwidth in MiByte/s
system.mem_ctrls.avgRdBWSys                      0.00                       # Average system read bandwidth in MiByte/s
system.mem_ctrls.avgWrBWSys                      0.00                       # Average system write bandwidth in MiByte/s
system.mem_ctrls.peakBW                      12800.00                       # Theoretical peak bandwidth in MiByte/s
system.mem_ctrls.busUtil                         0.00                       # Data bus utilization in percentage
system.mem_ctrls.busUtilRead                     0.00                       # Data bus utilization in percentage for reads
system.mem_ctrls.busUtilWrite                    0.00                       # Data bus utilization in percentage for writes
system.mem_ctrls.avgRdQLen                       0.00                       # Average read queue length when enqueuing
system.mem_ctrls.avgWrQLen                       0.00                       # Average write queue length when enqueuing
system.mem_ctrls.readRowHits                        0                       # Number of row buffer hits during reads
system.mem_ctrls.writeRowHits                       0                       # Number of row buffer hits during writes
system.mem_ctrls.readRowHitRate                   nan                       # Row buffer hit rate for reads
system.mem_ctrls.writeRowHitRate                  nan                       # Row buffer hit rate for writes
system.mem_ctrls.avgGap                           nan                       # Average gap between requests
system.mem_ctrls.pageHitRate                      nan                       # Row buffer hit rate, read and write combined
system.mem_ctrls_0.actEnergy                        0                       # Energy for activate commands per rank (pJ)
system.mem_ctrls_0.preEnergy                        0                       # Energy for precharge commands per rank (pJ)
system.mem_ctrls_0.readEnergy                       0                       # Energy for read commands per rank (pJ)
system.mem_ctrls_0.writeEnergy                      0                       # Energy for write commands per rank (pJ)
system.mem_ctrls_0.refreshEnergy                    0                       # Energy for refresh commands per rank (pJ)
system.mem_ctrls_0.actBackEnergy                    0                       # Energy for active background per rank (pJ)
system.mem_ctrls_0.preBackEnergy                    0                       # Energy for precharge background per rank (pJ)
system.mem_ctrls_0.totalEnergy                      0                       # Total energy per rank (pJ)
system.mem_ctrls_0.averagePower                     0                       # Core power per rank (mW)
system.mem_ctrls_0.memoryStateTime::IDLE            0                       # Time in different power states
system.mem_ctrls_0.memoryStateTime::REF             0                       # Time in different power states
system.mem_ctrls_0.memoryStateTime::PRE_PDN            0                       # Time in different power states
system.mem_ctrls_0.memoryStateTime::ACT             0                       # Time in different power states
system.mem_ctrls_0.memoryStateTime::ACT_PDN            0                       # Time in different power states
system.mem_ctrls_1.actEnergy                        0                       # Energy for activate commands per rank (pJ)
system.mem_ctrls_1.preEnergy                        0                       # Energy for precharge commands per rank (pJ)
system.mem_ctrls_1.readEnergy                       0                       # Energy for read commands per rank (pJ)
system.mem_ctrls_1.writeEnergy                      0                       # Energy for write commands per rank (pJ)
system.mem_ctrls_1.refreshEnergy                    0                       # Energy for refresh commands per rank (pJ)
system.mem_ctrls_1.actBackEnergy                    0                       # Energy for active background per rank (pJ)
system.mem_ctrls_1.preBackEnergy                    0                       # Energy for precharge background per rank (pJ)
system.mem_ctrls_1.totalEnergy                      0                       # Total energy per rank (pJ)
system.mem_ctrls_1.averagePower                     0                       # Core power per rank (mW)
system.mem_ctrls_1.memoryStateTime::IDLE            0                       # Time in different power states
system.mem_ctrls_1.memoryStateTime::REF             0                       # Time in different power states
system.mem_ctrls_1.memoryStateTime::PRE_PDN            0                       # Time in different power states
system.mem_ctrls_1.memoryStateTime::ACT             0                       # Time in different power states
system.mem_ctrls_1.memoryStateTime::ACT_PDN            0                       # Time in different power states
system.cpu_voltage_domain.voltage                   1                       # Voltage in Volts
system.cpu_clk_domain.clock                       500                       # Clock period in ticks
system.cpu00.dtb.fetch_hits                         0                       # ITB hits
system.cpu00.dtb.fetch_misses                       0                       # ITB misses
system.cpu00.dtb.fetch_acv                          0                       # ITB acv
system.cpu00.dtb.fetch_accesses                     0                       # ITB accesses
system.cpu00.dtb.read_hits                          0                       # DTB read hits
system.cpu00.dtb.read_misses                        0                       # DTB read misses
system.cpu00.dtb.read_acv                           0                       # DTB read access violations
system.cpu00.dtb.read_accesses                      0                       # DTB read accesses
system.cpu00.dtb.write_hits                         0                       # DTB write hits
system.cpu00.dtb.write_misses                       0                       # DTB write misses
system.cpu00.dtb.write_acv                          0                       # DTB write access violations
system.cpu00.dtb.write_accesses                     0                       # DTB write accesses
system.cpu00.dtb.data_hits                          0                       # DTB hits
system.cpu00.dtb.data_misses                        0                       # DTB misses
system.cpu00.dtb.data_acv                           0                       # DTB access violations
system.cpu00.dtb.data_accesses                      0                       # DTB accesses
system.cpu00.itb.fetch_hits                         0                       # ITB hits
system.cpu00.itb.fetch_misses                       0                       # ITB misses
system.cpu00.itb.fetch_acv                          0                       # ITB acv
system.cpu00.itb.fetch_accesses                     0                       # ITB accesses
system.cpu00.itb.read_hits                          0                       # DTB read hits
system.cpu00.itb.read_misses                        0                       # DTB read misses
system.cpu00.itb.read_acv                           0                       # DTB read access violations
system.cpu00.itb.read_accesses                      0                       # DTB read accesses
system.cpu00.itb.write_hits                         0                       # DTB write hits
system.cpu00.itb.write_misses                       0                       # DTB write misses
system.cpu00.itb.write_acv                          0                       # DTB write access violations
system.cpu00.itb.write_accesses                     0                       # DTB write accesses
system.cpu00.itb.data_hits                          0                       # DTB hits
system.cpu00.itb.data_misses                        0                       # DTB misses
system.cpu00.itb.data_acv                           0                       # DTB access violations
system.cpu00.itb.data_accesses                      0                       # DTB accesses
system.cpu00.numCycles                              0                       # number of cpu cycles simulated
system.cpu00.numWorkItemsStarted                    0                       # number of work items this cpu started
system.cpu00.numWorkItemsCompleted                  0                       # number of work items this cpu completed
system.cpu00.kern.inst.arm                          0                       # number of arm instructions executed
system.cpu00.kern.inst.quiesce                      1                       # number of quiesce instructions executed
system.cpu00.kern.inst.hwrei                        2                       # number of hwrei instructions executed
system.cpu00.kern.ipl_count::0                      1     50.00%     50.00% # number of times we switched to this ipl
system.cpu00.kern.ipl_count::30                     1     50.00%    100.00% # number of times we switched to this ipl
system.cpu00.kern.ipl_count::total                  2                       # number of times we switched to this ipl
system.cpu00.kern.ipl_good::0                       1     50.00%     50.00% # number of times we switched to this ipl from a different ipl
system.cpu00.kern.ipl_good::30                      1     50.00%    100.00% # number of times we switched to this ipl from a different ipl
system.cpu00.kern.ipl_good::total                   2                       # number of times we switched to this ipl from a different ipl
system.cpu00.kern.ipl_ticks::0              363034500     99.95%     99.95% # number of cycles we spent at this ipl
system.cpu00.kern.ipl_ticks::30                164500      0.05%    100.00% # number of cycles we spent at this ipl
system.cpu00.kern.ipl_ticks::total          363199000                       # number of cycles we spent at this ipl
system.cpu00.kern.ipl_used::0                       1                       # fraction of swpipl calls that actually changed the ipl
system.cpu00.kern.ipl_used::30                      1                       # fraction of swpipl calls that actually changed the ipl
system.cpu00.kern.ipl_used::total                   1                       # fraction of swpipl calls that actually changed the ipl
system.cpu00.kern.callpal::rti                      1    100.00%    100.00% # number of callpals executed
system.cpu00.kern.callpal::total                    1                       # number of callpals executed
system.cpu00.kern.mode_switch::kernel               1                       # number of protection mode switches
system.cpu00.kern.mode_switch::user                 0                       # number of protection mode switches
system.cpu00.kern.mode_switch::idle                 0                       # number of protection mode switches
system.cpu00.kern.mode_good::kernel                 0                      
system.cpu00.kern.mode_good::user                   0                      
system.cpu00.kern.mode_good::idle                   0                      
system.cpu00.kern.mode_switch_good::kernel            0                       # fraction of useful protection mode switches
system.cpu00.kern.mode_switch_good::user          nan                       # fraction of useful protection mode switches
system.cpu00.kern.mode_switch_good::idle          nan                       # fraction of useful protection mode switches
system.cpu00.kern.mode_switch_good::total            0                       # fraction of useful protection mode switches
system.cpu00.kern.mode_ticks::kernel                0                       # number of ticks spent at the given mode
system.cpu00.kern.mode_ticks::user                  0                       # number of ticks spent at the given mode
system.cpu00.kern.mode_ticks::idle                  0                       # number of ticks spent at the given mode
system.cpu00.kern.swap_context                      0                       # number of times the context was actually changed
system.cpu00.committedInsts                         0                       # Number of instructions committed
system.cpu00.committedOps                           0                       # Number of ops (including micro ops) committed
system.cpu00.num_int_alu_accesses                   0                       # Number of integer alu accesses
system.cpu00.num_fp_alu_accesses                    0                       # Number of float alu accesses
system.cpu00.num_func_calls                         0                       # number of times a function call or return occured
system.cpu00.num_conditional_control_insts            0                       # number of instructions that are conditional controls
system.cpu00.num_int_insts                          0                       # number of integer instructions
system.cpu00.num_fp_insts                           0                       # number of float instructions
system.cpu00.num_int_register_reads                 0                       # number of times the integer registers were read
system.cpu00.num_int_register_writes                0                       # number of times the integer registers were written
system.cpu00.num_fp_register_reads                  0                       # number of times the floating registers were read
system.cpu00.num_fp_register_writes                 0                       # number of times the floating registers were written
system.cpu00.num_mem_refs                           0                       # number of memory refs
system.cpu00.num_load_insts                         0                       # Number of load instructions
system.cpu00.num_store_insts                        0                       # Number of store instructions
system.cpu00.num_idle_cycles                        0                       # Number of idle cycles
system.cpu00.num_busy_cycles                        0                       # Number of busy cycles
system.cpu00.not_idle_fraction                      0                       # Percentage of non-idle cycles
system.cpu00.idle_fraction                          1                       # Percentage of idle cycles
system.cpu00.op_class::No_OpClass                   0                       # Class of executed instruction
system.cpu00.op_class::IntAlu                       0                       # Class of executed instruction
system.cpu00.op_class::IntMult                      0                       # Class of executed instruction
system.cpu00.op_class::IntDiv                       0                       # Class of executed instruction
system.cpu00.op_class::FloatAdd                     0                       # Class of executed instruction
system.cpu00.op_class::FloatCmp                     0                       # Class of executed instruction
system.cpu00.op_class::FloatCvt                     0                       # Class of executed instruction
system.cpu00.op_class::FloatMult                    0                       # Class of executed instruction
system.cpu00.op_class::FloatDiv                     0                       # Class of executed instruction
system.cpu00.op_class::FloatSqrt                    0                       # Class of executed instruction
system.cpu00.op_class::SimdAdd                      0                       # Class of executed instruction
system.cpu00.op_class::SimdAddAcc                   0                       # Class of executed instruction
system.cpu00.op_class::SimdAlu                      0                       # Class of executed instruction
system.cpu00.op_class::SimdCmp                      0                       # Class of executed instruction
system.cpu00.op_class::SimdCvt                      0                       # Class of executed instruction
system.cpu00.op_class::SimdMisc                     0                       # Class of executed instruction
system.cpu00.op_class::SimdMult                     0                       # Class of executed instruction
system.cpu00.op_class::SimdMultAcc                  0                       # Class of executed instruction
system.cpu00.op_class::SimdShift                    0                       # Class of executed instruction
system.cpu00.op_class::SimdShiftAcc                 0                       # Class of executed instruction
system.cpu00.op_class::SimdSqrt                     0                       # Class of executed instruction
system.cpu00.op_class::SimdFloatAdd                 0                       # Class of executed instruction
system.cpu00.op_class::SimdFloatAlu                 0                       # Class of executed instruction
system.cpu00.op_class::SimdFloatCmp                 0                       # Class of executed instruction
system.cpu00.op_class::SimdFloatCvt                 0                       # Class of executed instruction
system.cpu00.op_class::SimdFloatDiv                 0                       # Class of executed instruction
system.cpu00.op_class::SimdFloatMisc                0                       # Class of executed instruction
system.cpu00.op_class::SimdFloatMult                0                       # Class of executed instruction
system.cpu00.op_class::SimdFloatMultAcc             0                       # Class of executed instruction
system.cpu00.op_class::SimdFloatSqrt                0                       # Class of executed instruction
system.cpu00.op_class::MemRead                      0                       # Class of executed instruction
system.cpu00.op_class::MemWrite                     0                       # Class of executed instruction
system.cpu00.op_class::IprAccess                    0                       # Class of executed instruction
system.cpu00.op_class::InstPrefetch                 0                       # Class of executed instruction
system.cpu00.op_class::total                        0                       # Class of executed instruction
system.cpu00.dcache.tags.replacements               2                       # number of replacements
system.cpu00.dcache.tags.tagsinuse         436.856251                       # Cycle average of tags in use
system.cpu00.dcache.tags.total_refs                 1                       # Total number of references to valid blocks.
system.cpu00.dcache.tags.sampled_refs               2                       # Sample count of references to valid blocks.
system.cpu00.dcache.tags.avg_refs            0.500000                       # Average number of references to valid blocks.
system.cpu00.dcache.tags.warmup_cycle               0                       # Cycle when the warmup percentage was hit.
system.cpu00.dcache.tags.occ_blocks::cpu00.data   436.281324                       # Average occupied blocks per requestor
system.cpu00.dcache.tags.occ_blocks::switch_cpus00.data     0.574927                       # Average occupied blocks per requestor
system.cpu00.dcache.tags.occ_percent::cpu00.data     0.852112                       # Average percentage of cache occupancy
system.cpu00.dcache.tags.occ_percent::switch_cpus00.data     0.001123                       # Average percentage of cache occupancy
system.cpu00.dcache.tags.occ_percent::total     0.853235                       # Average percentage of cache occupancy
system.cpu00.dcache.tags.occ_task_id_blocks::1024          436                       # Occupied blocks per task id
system.cpu00.dcache.tags.age_task_id_blocks_1024::2           23                       # Occupied blocks per task id
system.cpu00.dcache.tags.age_task_id_blocks_1024::3          402                       # Occupied blocks per task id
system.cpu00.dcache.tags.age_task_id_blocks_1024::4           11                       # Occupied blocks per task id
system.cpu00.dcache.tags.occ_task_id_percent::1024     0.851562                       # Percentage of cache occupancy per task id
system.cpu00.dcache.tags.tag_accesses             284                       # Number of tag accesses
system.cpu00.dcache.tags.data_accesses            284                       # Number of data accesses
system.cpu00.dcache.ReadReq_hits::switch_cpus00.data           75                       # number of ReadReq hits
system.cpu00.dcache.ReadReq_hits::total            75                       # number of ReadReq hits
system.cpu00.dcache.WriteReq_hits::switch_cpus00.data           54                       # number of WriteReq hits
system.cpu00.dcache.WriteReq_hits::total           54                       # number of WriteReq hits
system.cpu00.dcache.LoadLockedReq_hits::switch_cpus00.data            3                       # number of LoadLockedReq hits
system.cpu00.dcache.LoadLockedReq_hits::total            3                       # number of LoadLockedReq hits
system.cpu00.dcache.StoreCondReq_hits::switch_cpus00.data            2                       # number of StoreCondReq hits
system.cpu00.dcache.StoreCondReq_hits::total            2                       # number of StoreCondReq hits
system.cpu00.dcache.demand_hits::switch_cpus00.data          129                       # number of demand (read+write) hits
system.cpu00.dcache.demand_hits::total            129                       # number of demand (read+write) hits
system.cpu00.dcache.overall_hits::switch_cpus00.data          129                       # number of overall hits
system.cpu00.dcache.overall_hits::total           129                       # number of overall hits
system.cpu00.dcache.ReadReq_misses::switch_cpus00.data            3                       # number of ReadReq misses
system.cpu00.dcache.ReadReq_misses::total            3                       # number of ReadReq misses
system.cpu00.dcache.LoadLockedReq_misses::switch_cpus00.data            1                       # number of LoadLockedReq misses
system.cpu00.dcache.LoadLockedReq_misses::total            1                       # number of LoadLockedReq misses
system.cpu00.dcache.StoreCondReq_misses::switch_cpus00.data            2                       # number of StoreCondReq misses
system.cpu00.dcache.StoreCondReq_misses::total            2                       # number of StoreCondReq misses
system.cpu00.dcache.demand_misses::switch_cpus00.data            3                       # number of demand (read+write) misses
system.cpu00.dcache.demand_misses::total            3                       # number of demand (read+write) misses
system.cpu00.dcache.overall_misses::switch_cpus00.data            3                       # number of overall misses
system.cpu00.dcache.overall_misses::total            3                       # number of overall misses
system.cpu00.dcache.ReadReq_accesses::switch_cpus00.data           78                       # number of ReadReq accesses(hits+misses)
system.cpu00.dcache.ReadReq_accesses::total           78                       # number of ReadReq accesses(hits+misses)
system.cpu00.dcache.WriteReq_accesses::switch_cpus00.data           54                       # number of WriteReq accesses(hits+misses)
system.cpu00.dcache.WriteReq_accesses::total           54                       # number of WriteReq accesses(hits+misses)
system.cpu00.dcache.LoadLockedReq_accesses::switch_cpus00.data            4                       # number of LoadLockedReq accesses(hits+misses)
system.cpu00.dcache.LoadLockedReq_accesses::total            4                       # number of LoadLockedReq accesses(hits+misses)
system.cpu00.dcache.StoreCondReq_accesses::switch_cpus00.data            4                       # number of StoreCondReq accesses(hits+misses)
system.cpu00.dcache.StoreCondReq_accesses::total            4                       # number of StoreCondReq accesses(hits+misses)
system.cpu00.dcache.demand_accesses::switch_cpus00.data          132                       # number of demand (read+write) accesses
system.cpu00.dcache.demand_accesses::total          132                       # number of demand (read+write) accesses
system.cpu00.dcache.overall_accesses::switch_cpus00.data          132                       # number of overall (read+write) accesses
system.cpu00.dcache.overall_accesses::total          132                       # number of overall (read+write) accesses
system.cpu00.dcache.ReadReq_miss_rate::switch_cpus00.data     0.038462                       # miss rate for ReadReq accesses
system.cpu00.dcache.ReadReq_miss_rate::total     0.038462                       # miss rate for ReadReq accesses
system.cpu00.dcache.LoadLockedReq_miss_rate::switch_cpus00.data     0.250000                       # miss rate for LoadLockedReq accesses
system.cpu00.dcache.LoadLockedReq_miss_rate::total     0.250000                       # miss rate for LoadLockedReq accesses
system.cpu00.dcache.StoreCondReq_miss_rate::switch_cpus00.data     0.500000                       # miss rate for StoreCondReq accesses
system.cpu00.dcache.StoreCondReq_miss_rate::total     0.500000                       # miss rate for StoreCondReq accesses
system.cpu00.dcache.demand_miss_rate::switch_cpus00.data     0.022727                       # miss rate for demand accesses
system.cpu00.dcache.demand_miss_rate::total     0.022727                       # miss rate for demand accesses
system.cpu00.dcache.overall_miss_rate::switch_cpus00.data     0.022727                       # miss rate for overall accesses
system.cpu00.dcache.overall_miss_rate::total     0.022727                       # miss rate for overall accesses
system.cpu00.dcache.blocked_cycles::no_mshrs            0                       # number of cycles access was blocked
system.cpu00.dcache.blocked_cycles::no_targets            0                       # number of cycles access was blocked
system.cpu00.dcache.blocked::no_mshrs               0                       # number of cycles access was blocked
system.cpu00.dcache.blocked::no_targets             0                       # number of cycles access was blocked
system.cpu00.dcache.avg_blocked_cycles::no_mshrs          nan                       # average number of cycles each access was blocked
system.cpu00.dcache.avg_blocked_cycles::no_targets          nan                       # average number of cycles each access was blocked
system.cpu00.dcache.fast_writes                     0                       # number of fast writes performed
system.cpu00.dcache.cache_copies                    0                       # number of cache copies performed
system.cpu00.dcache.no_allocate_misses              0                       # Number of misses that were no-allocate
system.cpu00.icache.tags.replacements               0                       # number of replacements
system.cpu00.icache.tags.tagsinuse                512                       # Cycle average of tags in use
system.cpu00.icache.tags.total_refs                 0                       # Total number of references to valid blocks.
system.cpu00.icache.tags.sampled_refs               0                       # Sample count of references to valid blocks.
system.cpu00.icache.tags.avg_refs                 nan                       # Average number of references to valid blocks.
system.cpu00.icache.tags.warmup_cycle               0                       # Cycle when the warmup percentage was hit.
system.cpu00.icache.tags.occ_blocks::cpu00.inst          512                       # Average occupied blocks per requestor
system.cpu00.icache.tags.occ_percent::cpu00.inst            1                       # Average percentage of cache occupancy
system.cpu00.icache.tags.occ_percent::total            1                       # Average percentage of cache occupancy
system.cpu00.icache.tags.occ_task_id_blocks::1024          512                       # Occupied blocks per task id
system.cpu00.icache.tags.age_task_id_blocks_1024::2           35                       # Occupied blocks per task id
system.cpu00.icache.tags.age_task_id_blocks_1024::3          476                       # Occupied blocks per task id
system.cpu00.icache.tags.age_task_id_blocks_1024::4            1                       # Occupied blocks per task id
system.cpu00.icache.tags.occ_task_id_percent::1024            1                       # Percentage of cache occupancy per task id
system.cpu00.icache.tags.tag_accesses             740                       # Number of tag accesses
system.cpu00.icache.tags.data_accesses            740                       # Number of data accesses
system.cpu00.icache.ReadReq_hits::switch_cpus00.inst          370                       # number of ReadReq hits
system.cpu00.icache.ReadReq_hits::total           370                       # number of ReadReq hits
system.cpu00.icache.demand_hits::switch_cpus00.inst          370                       # number of demand (read+write) hits
system.cpu00.icache.demand_hits::total            370                       # number of demand (read+write) hits
system.cpu00.icache.overall_hits::switch_cpus00.inst          370                       # number of overall hits
system.cpu00.icache.overall_hits::total           370                       # number of overall hits
system.cpu00.icache.ReadReq_accesses::switch_cpus00.inst          370                       # number of ReadReq accesses(hits+misses)
system.cpu00.icache.ReadReq_accesses::total          370                       # number of ReadReq accesses(hits+misses)
system.cpu00.icache.demand_accesses::switch_cpus00.inst          370                       # number of demand (read+write) accesses
system.cpu00.icache.demand_accesses::total          370                       # number of demand (read+write) accesses
system.cpu00.icache.overall_accesses::switch_cpus00.inst          370                       # number of overall (read+write) accesses
system.cpu00.icache.overall_accesses::total          370                       # number of overall (read+write) accesses
system.cpu00.icache.blocked_cycles::no_mshrs            0                       # number of cycles access was blocked
system.cpu00.icache.blocked_cycles::no_targets            0                       # number of cycles access was blocked
system.cpu00.icache.blocked::no_mshrs               0                       # number of cycles access was blocked
system.cpu00.icache.blocked::no_targets             0                       # number of cycles access was blocked
system.cpu00.icache.avg_blocked_cycles::no_mshrs          nan                       # average number of cycles each access was blocked
system.cpu00.icache.avg_blocked_cycles::no_targets          nan                       # average number of cycles each access was blocked
system.cpu00.icache.fast_writes                     0                       # number of fast writes performed
system.cpu00.icache.cache_copies                    0                       # number of cache copies performed
system.cpu00.icache.no_allocate_misses              0                       # Number of misses that were no-allocate
system.cpu01.dtb.fetch_hits                         0                       # ITB hits
system.cpu01.dtb.fetch_misses                       0                       # ITB misses
system.cpu01.dtb.fetch_acv                          0                       # ITB acv
system.cpu01.dtb.fetch_accesses                     0                       # ITB accesses
system.cpu01.dtb.read_hits                          0                       # DTB read hits
system.cpu01.dtb.read_misses                        0                       # DTB read misses
system.cpu01.dtb.read_acv                           0                       # DTB read access violations
system.cpu01.dtb.read_accesses                      0                       # DTB read accesses
system.cpu01.dtb.write_hits                         0                       # DTB write hits
system.cpu01.dtb.write_misses                       0                       # DTB write misses
system.cpu01.dtb.write_acv                          0                       # DTB write access violations
system.cpu01.dtb.write_accesses                     0                       # DTB write accesses
system.cpu01.dtb.data_hits                          0                       # DTB hits
system.cpu01.dtb.data_misses                        0                       # DTB misses
system.cpu01.dtb.data_acv                           0                       # DTB access violations
system.cpu01.dtb.data_accesses                      0                       # DTB accesses
system.cpu01.itb.fetch_hits                         0                       # ITB hits
system.cpu01.itb.fetch_misses                       0                       # ITB misses
system.cpu01.itb.fetch_acv                          0                       # ITB acv
system.cpu01.itb.fetch_accesses                     0                       # ITB accesses
system.cpu01.itb.read_hits                          0                       # DTB read hits
system.cpu01.itb.read_misses                        0                       # DTB read misses
system.cpu01.itb.read_acv                           0                       # DTB read access violations
system.cpu01.itb.read_accesses                      0                       # DTB read accesses
system.cpu01.itb.write_hits                         0                       # DTB write hits
system.cpu01.itb.write_misses                       0                       # DTB write misses
system.cpu01.itb.write_acv                          0                       # DTB write access violations
system.cpu01.itb.write_accesses                     0                       # DTB write accesses
system.cpu01.itb.data_hits                          0                       # DTB hits
system.cpu01.itb.data_misses                        0                       # DTB misses
system.cpu01.itb.data_acv                           0                       # DTB access violations
system.cpu01.itb.data_accesses                      0                       # DTB accesses
system.cpu01.numCycles                              0                       # number of cpu cycles simulated
system.cpu01.numWorkItemsStarted                    0                       # number of work items this cpu started
system.cpu01.numWorkItemsCompleted                  0                       # number of work items this cpu completed
system.cpu01.kern.inst.arm                          0                       # number of arm instructions executed
system.cpu01.kern.inst.quiesce                      1                       # number of quiesce instructions executed
system.cpu01.kern.inst.hwrei                        2                       # number of hwrei instructions executed
system.cpu01.kern.ipl_count::0                      1     50.00%     50.00% # number of times we switched to this ipl
system.cpu01.kern.ipl_count::30                     1     50.00%    100.00% # number of times we switched to this ipl
system.cpu01.kern.ipl_count::total                  2                       # number of times we switched to this ipl
system.cpu01.kern.ipl_good::0                       1     50.00%     50.00% # number of times we switched to this ipl from a different ipl
system.cpu01.kern.ipl_good::30                      1     50.00%    100.00% # number of times we switched to this ipl from a different ipl
system.cpu01.kern.ipl_good::total                   2                       # number of times we switched to this ipl from a different ipl
system.cpu01.kern.ipl_ticks::0              363034500     99.95%     99.95% # number of cycles we spent at this ipl
system.cpu01.kern.ipl_ticks::30                164500      0.05%    100.00% # number of cycles we spent at this ipl
system.cpu01.kern.ipl_ticks::total          363199000                       # number of cycles we spent at this ipl
system.cpu01.kern.ipl_used::0                       1                       # fraction of swpipl calls that actually changed the ipl
system.cpu01.kern.ipl_used::30                      1                       # fraction of swpipl calls that actually changed the ipl
system.cpu01.kern.ipl_used::total                   1                       # fraction of swpipl calls that actually changed the ipl
system.cpu01.kern.callpal::rti                      1    100.00%    100.00% # number of callpals executed
system.cpu01.kern.callpal::total                    1                       # number of callpals executed
system.cpu01.kern.mode_switch::kernel               0                       # number of protection mode switches
system.cpu01.kern.mode_switch::user                 0                       # number of protection mode switches
system.cpu01.kern.mode_switch::idle                 1                       # number of protection mode switches
system.cpu01.kern.mode_good::kernel                 0                      
system.cpu01.kern.mode_good::user                   0                      
system.cpu01.kern.mode_good::idle                   0                      
system.cpu01.kern.mode_switch_good::kernel          nan                       # fraction of useful protection mode switches
system.cpu01.kern.mode_switch_good::user          nan                       # fraction of useful protection mode switches
system.cpu01.kern.mode_switch_good::idle            0                       # fraction of useful protection mode switches
system.cpu01.kern.mode_switch_good::total            0                       # fraction of useful protection mode switches
system.cpu01.kern.mode_ticks::kernel                0                       # number of ticks spent at the given mode
system.cpu01.kern.mode_ticks::user                  0                       # number of ticks spent at the given mode
system.cpu01.kern.mode_ticks::idle                  0                       # number of ticks spent at the given mode
system.cpu01.kern.swap_context                      0                       # number of times the context was actually changed
system.cpu01.committedInsts                         0                       # Number of instructions committed
system.cpu01.committedOps                           0                       # Number of ops (including micro ops) committed
system.cpu01.num_int_alu_accesses                   0                       # Number of integer alu accesses
system.cpu01.num_fp_alu_accesses                    0                       # Number of float alu accesses
system.cpu01.num_func_calls                         0                       # number of times a function call or return occured
system.cpu01.num_conditional_control_insts            0                       # number of instructions that are conditional controls
system.cpu01.num_int_insts                          0                       # number of integer instructions
system.cpu01.num_fp_insts                           0                       # number of float instructions
system.cpu01.num_int_register_reads                 0                       # number of times the integer registers were read
system.cpu01.num_int_register_writes                0                       # number of times the integer registers were written
system.cpu01.num_fp_register_reads                  0                       # number of times the floating registers were read
system.cpu01.num_fp_register_writes                 0                       # number of times the floating registers were written
system.cpu01.num_mem_refs                           0                       # number of memory refs
system.cpu01.num_load_insts                         0                       # Number of load instructions
system.cpu01.num_store_insts                        0                       # Number of store instructions
system.cpu01.num_idle_cycles                        0                       # Number of idle cycles
system.cpu01.num_busy_cycles                        0                       # Number of busy cycles
system.cpu01.not_idle_fraction                      0                       # Percentage of non-idle cycles
system.cpu01.idle_fraction                          1                       # Percentage of idle cycles
system.cpu01.op_class::No_OpClass                   0                       # Class of executed instruction
system.cpu01.op_class::IntAlu                       0                       # Class of executed instruction
system.cpu01.op_class::IntMult                      0                       # Class of executed instruction
system.cpu01.op_class::IntDiv                       0                       # Class of executed instruction
system.cpu01.op_class::FloatAdd                     0                       # Class of executed instruction
system.cpu01.op_class::FloatCmp                     0                       # Class of executed instruction
system.cpu01.op_class::FloatCvt                     0                       # Class of executed instruction
system.cpu01.op_class::FloatMult                    0                       # Class of executed instruction
system.cpu01.op_class::FloatDiv                     0                       # Class of executed instruction
system.cpu01.op_class::FloatSqrt                    0                       # Class of executed instruction
system.cpu01.op_class::SimdAdd                      0                       # Class of executed instruction
system.cpu01.op_class::SimdAddAcc                   0                       # Class of executed instruction
system.cpu01.op_class::SimdAlu                      0                       # Class of executed instruction
system.cpu01.op_class::SimdCmp                      0                       # Class of executed instruction
system.cpu01.op_class::SimdCvt                      0                       # Class of executed instruction
system.cpu01.op_class::SimdMisc                     0                       # Class of executed instruction
system.cpu01.op_class::SimdMult                     0                       # Class of executed instruction
system.cpu01.op_class::SimdMultAcc                  0                       # Class of executed instruction
system.cpu01.op_class::SimdShift                    0                       # Class of executed instruction
system.cpu01.op_class::SimdShiftAcc                 0                       # Class of executed instruction
system.cpu01.op_class::SimdSqrt                     0                       # Class of executed instruction
system.cpu01.op_class::SimdFloatAdd                 0                       # Class of executed instruction
system.cpu01.op_class::SimdFloatAlu                 0                       # Class of executed instruction
system.cpu01.op_class::SimdFloatCmp                 0                       # Class of executed instruction
system.cpu01.op_class::SimdFloatCvt                 0                       # Class of executed instruction
system.cpu01.op_class::SimdFloatDiv                 0                       # Class of executed instruction
system.cpu01.op_class::SimdFloatMisc                0                       # Class of executed instruction
system.cpu01.op_class::SimdFloatMult                0                       # Class of executed instruction
system.cpu01.op_class::SimdFloatMultAcc             0                       # Class of executed instruction
system.cpu01.op_class::SimdFloatSqrt                0                       # Class of executed instruction
system.cpu01.op_class::MemRead                      0                       # Class of executed instruction
system.cpu01.op_class::MemWrite                     0                       # Class of executed instruction
system.cpu01.op_class::IprAccess                    0                       # Class of executed instruction
system.cpu01.op_class::InstPrefetch                 0                       # Class of executed instruction
system.cpu01.op_class::total                        0                       # Class of executed instruction
system.cpu01.dcache.tags.replacements               1                       # number of replacements
system.cpu01.dcache.tags.tagsinuse         312.428344                       # Cycle average of tags in use
system.cpu01.dcache.tags.total_refs                 1                       # Total number of references to valid blocks.
system.cpu01.dcache.tags.sampled_refs               1                       # Sample count of references to valid blocks.
system.cpu01.dcache.tags.avg_refs                   1                       # Average number of references to valid blocks.
system.cpu01.dcache.tags.warmup_cycle               0                       # Cycle when the warmup percentage was hit.
system.cpu01.dcache.tags.occ_blocks::cpu01.data   311.853771                       # Average occupied blocks per requestor
system.cpu01.dcache.tags.occ_blocks::switch_cpus01.data     0.574573                       # Average occupied blocks per requestor
system.cpu01.dcache.tags.occ_percent::cpu01.data     0.609089                       # Average percentage of cache occupancy
system.cpu01.dcache.tags.occ_percent::switch_cpus01.data     0.001122                       # Average percentage of cache occupancy
system.cpu01.dcache.tags.occ_percent::total     0.610212                       # Average percentage of cache occupancy
system.cpu01.dcache.tags.occ_task_id_blocks::1024          312                       # Occupied blocks per task id
system.cpu01.dcache.tags.age_task_id_blocks_1024::2           18                       # Occupied blocks per task id
system.cpu01.dcache.tags.age_task_id_blocks_1024::3            4                       # Occupied blocks per task id
system.cpu01.dcache.tags.age_task_id_blocks_1024::4          290                       # Occupied blocks per task id
system.cpu01.dcache.tags.occ_task_id_percent::1024     0.609375                       # Percentage of cache occupancy per task id
system.cpu01.dcache.tags.tag_accesses             284                       # Number of tag accesses
system.cpu01.dcache.tags.data_accesses            284                       # Number of data accesses
system.cpu01.dcache.ReadReq_hits::switch_cpus01.data           75                       # number of ReadReq hits
system.cpu01.dcache.ReadReq_hits::total            75                       # number of ReadReq hits
system.cpu01.dcache.WriteReq_hits::switch_cpus01.data           54                       # number of WriteReq hits
system.cpu01.dcache.WriteReq_hits::total           54                       # number of WriteReq hits
system.cpu01.dcache.LoadLockedReq_hits::switch_cpus01.data            3                       # number of LoadLockedReq hits
system.cpu01.dcache.LoadLockedReq_hits::total            3                       # number of LoadLockedReq hits
system.cpu01.dcache.StoreCondReq_hits::switch_cpus01.data            2                       # number of StoreCondReq hits
system.cpu01.dcache.StoreCondReq_hits::total            2                       # number of StoreCondReq hits
system.cpu01.dcache.demand_hits::switch_cpus01.data          129                       # number of demand (read+write) hits
system.cpu01.dcache.demand_hits::total            129                       # number of demand (read+write) hits
system.cpu01.dcache.overall_hits::switch_cpus01.data          129                       # number of overall hits
system.cpu01.dcache.overall_hits::total           129                       # number of overall hits
system.cpu01.dcache.ReadReq_misses::switch_cpus01.data            3                       # number of ReadReq misses
system.cpu01.dcache.ReadReq_misses::total            3                       # number of ReadReq misses
system.cpu01.dcache.LoadLockedReq_misses::switch_cpus01.data            1                       # number of LoadLockedReq misses
system.cpu01.dcache.LoadLockedReq_misses::total            1                       # number of LoadLockedReq misses
system.cpu01.dcache.StoreCondReq_misses::switch_cpus01.data            2                       # number of StoreCondReq misses
system.cpu01.dcache.StoreCondReq_misses::total            2                       # number of StoreCondReq misses
system.cpu01.dcache.demand_misses::switch_cpus01.data            3                       # number of demand (read+write) misses
system.cpu01.dcache.demand_misses::total            3                       # number of demand (read+write) misses
system.cpu01.dcache.overall_misses::switch_cpus01.data            3                       # number of overall misses
system.cpu01.dcache.overall_misses::total            3                       # number of overall misses
system.cpu01.dcache.ReadReq_accesses::switch_cpus01.data           78                       # number of ReadReq accesses(hits+misses)
system.cpu01.dcache.ReadReq_accesses::total           78                       # number of ReadReq accesses(hits+misses)
system.cpu01.dcache.WriteReq_accesses::switch_cpus01.data           54                       # number of WriteReq accesses(hits+misses)
system.cpu01.dcache.WriteReq_accesses::total           54                       # number of WriteReq accesses(hits+misses)
system.cpu01.dcache.LoadLockedReq_accesses::switch_cpus01.data            4                       # number of LoadLockedReq accesses(hits+misses)
system.cpu01.dcache.LoadLockedReq_accesses::total            4                       # number of LoadLockedReq accesses(hits+misses)
system.cpu01.dcache.StoreCondReq_accesses::switch_cpus01.data            4                       # number of StoreCondReq accesses(hits+misses)
system.cpu01.dcache.StoreCondReq_accesses::total            4                       # number of StoreCondReq accesses(hits+misses)
system.cpu01.dcache.demand_accesses::switch_cpus01.data          132                       # number of demand (read+write) accesses
system.cpu01.dcache.demand_accesses::total          132                       # number of demand (read+write) accesses
system.cpu01.dcache.overall_accesses::switch_cpus01.data          132                       # number of overall (read+write) accesses
system.cpu01.dcache.overall_accesses::total          132                       # number of overall (read+write) accesses
system.cpu01.dcache.ReadReq_miss_rate::switch_cpus01.data     0.038462                       # miss rate for ReadReq accesses
system.cpu01.dcache.ReadReq_miss_rate::total     0.038462                       # miss rate for ReadReq accesses
system.cpu01.dcache.LoadLockedReq_miss_rate::switch_cpus01.data     0.250000                       # miss rate for LoadLockedReq accesses
system.cpu01.dcache.LoadLockedReq_miss_rate::total     0.250000                       # miss rate for LoadLockedReq accesses
system.cpu01.dcache.StoreCondReq_miss_rate::switch_cpus01.data     0.500000                       # miss rate for StoreCondReq accesses
system.cpu01.dcache.StoreCondReq_miss_rate::total     0.500000                       # miss rate for StoreCondReq accesses
system.cpu01.dcache.demand_miss_rate::switch_cpus01.data     0.022727                       # miss rate for demand accesses
system.cpu01.dcache.demand_miss_rate::total     0.022727                       # miss rate for demand accesses
system.cpu01.dcache.overall_miss_rate::switch_cpus01.data     0.022727                       # miss rate for overall accesses
system.cpu01.dcache.overall_miss_rate::total     0.022727                       # miss rate for overall accesses
system.cpu01.dcache.blocked_cycles::no_mshrs            0                       # number of cycles access was blocked
system.cpu01.dcache.blocked_cycles::no_targets            0                       # number of cycles access was blocked
system.cpu01.dcache.blocked::no_mshrs               0                       # number of cycles access was blocked
system.cpu01.dcache.blocked::no_targets             0                       # number of cycles access was blocked
system.cpu01.dcache.avg_blocked_cycles::no_mshrs          nan                       # average number of cycles each access was blocked
system.cpu01.dcache.avg_blocked_cycles::no_targets          nan                       # average number of cycles each access was blocked
system.cpu01.dcache.fast_writes                     0                       # number of fast writes performed
system.cpu01.dcache.cache_copies                    0                       # number of cache copies performed
system.cpu01.dcache.no_allocate_misses              0                       # Number of misses that were no-allocate
system.cpu01.icache.tags.replacements               0                       # number of replacements
system.cpu01.icache.tags.tagsinuse                497                       # Cycle average of tags in use
system.cpu01.icache.tags.total_refs                 0                       # Total number of references to valid blocks.
[...]
system.tol2bus.trans_dist::WriteReq               440                       # Transaction distribution
system.tol2bus.trans_dist::WriteResp              440                       # Transaction distribution
system.tol2bus.trans_dist::WritebackDirty        26786                       # Transaction distribution
system.tol2bus.trans_dist::WritebackClean        10854                       # Transaction distribution
system.tol2bus.trans_dist::CleanEvict            9753                       # Transaction distribution
system.tol2bus.trans_dist::UpgradeReq             356                       # Transaction distribution
system.tol2bus.trans_dist::SCUpgradeReq           164                       # Transaction distribution
system.tol2bus.trans_dist::UpgradeResp            520                       # Transaction distribution
system.tol2bus.trans_dist::ReadExReq            14054                       # Transaction distribution
system.tol2bus.trans_dist::ReadExResp           14054                       # Transaction distribution
system.tol2bus.trans_dist::ReadCleanReq         15698                       # Transaction distribution
system.tol2bus.trans_dist::ReadSharedReq        25953                       # Transaction distribution
system.tol2bus.pkt_count_system.cpu00.icache.mem_side::system.l2.cpu_side          374                       # Packet count per connected master and slave (bytes)
system.tol2bus.pkt_count_system.cpu00.dcache.mem_side::system.l2.cpu_side         2157                       # Packet count per connected master and slave (bytes)
system.tol2bus.pkt_count_system.cpu01.icache.mem_side::system.l2.cpu_side           13                       # Packet count per connected master and slave (bytes)
system.tol2bus.pkt_count_system.cpu01.dcache.mem_side::system.l2.cpu_side           96                       # Packet count per connected master and slave (bytes)
system.tol2bus.pkt_count_system.cpu02.icache.mem_side::system.l2.cpu_side           15                       # Packet count per connected master and slave (bytes)
system.tol2bus.pkt_count_system.cpu02.dcache.mem_side::system.l2.cpu_side          102                       # Packet count per connected master and slave (bytes)
system.tol2bus.pkt_count_system.cpu03.icache.mem_side::system.l2.cpu_side          181                       # Packet count per connected master and slave (bytes)
system.tol2bus.pkt_count_system.cpu03.dcache.mem_side::system.l2.cpu_side          163                       # Packet count per connected master and slave (bytes)
system.tol2bus.pkt_count_system.cpu04.icache.mem_side::system.l2.cpu_side           10                       # Packet count per connected master and slave (bytes)
system.tol2bus.pkt_count_system.cpu04.dcache.mem_side::system.l2.cpu_side           86                       # Packet count per connected master and slave (bytes)
system.tol2bus.pkt_count_system.cpu05.icache.mem_side::system.l2.cpu_side           10                       # Packet count per connected master and slave (bytes)
system.tol2bus.pkt_count_system.cpu05.dcache.mem_side::system.l2.cpu_side           80                       # Packet count per connected master and slave (bytes)
system.tol2bus.pkt_count_system.cpu06.icache.mem_side::system.l2.cpu_side          160                       # Packet count per connected master and slave (bytes)
system.tol2bus.pkt_count_system.cpu06.dcache.mem_side::system.l2.cpu_side          145                       # Packet count per connected master and slave (bytes)
system.tol2bus.pkt_count_system.cpu07.icache.mem_side::system.l2.cpu_side           10                       # Packet count per connected master and slave (bytes)
system.tol2bus.pkt_count_system.cpu07.dcache.mem_side::system.l2.cpu_side           73                       # Packet count per connected master and slave (bytes)
system.tol2bus.pkt_count_system.cpu08.dcache.mem_side::system.l2.cpu_side           79                       # Packet count per connected master and slave (bytes)
system.tol2bus.pkt_count_system.cpu09.icache.mem_side::system.l2.cpu_side          157                       # Packet count per connected master and slave (bytes)
system.tol2bus.pkt_count_system.cpu09.dcache.mem_side::system.l2.cpu_side          146                       # Packet count per connected master and slave (bytes)
system.tol2bus.pkt_count_system.cpu10.icache.mem_side::system.l2.cpu_side           10                       # Packet count per connected master and slave (bytes)
system.tol2bus.pkt_count_system.cpu10.dcache.mem_side::system.l2.cpu_side           83                       # Packet count per connected master and slave (bytes)
system.tol2bus.pkt_count_system.cpu11.icache.mem_side::system.l2.cpu_side        25173                       # Packet count per connected master and slave (bytes)
system.tol2bus.pkt_count_system.cpu11.dcache.mem_side::system.l2.cpu_side        71117                       # Packet count per connected master and slave (bytes)
system.tol2bus.pkt_count_system.cpu12.icache.mem_side::system.l2.cpu_side         3507                       # Packet count per connected master and slave (bytes)
system.tol2bus.pkt_count_system.cpu12.dcache.mem_side::system.l2.cpu_side         7048                       # Packet count per connected master and slave (bytes)
system.tol2bus.pkt_count_system.cpu13.icache.mem_side::system.l2.cpu_side        12368                       # Packet count per connected master and slave (bytes)
system.tol2bus.pkt_count_system.cpu13.dcache.mem_side::system.l2.cpu_side        37825                       # Packet count per connected master and slave (bytes)
system.tol2bus.pkt_count_system.cpu14.icache.mem_side::system.l2.cpu_side           10                       # Packet count per connected master and slave (bytes)
system.tol2bus.pkt_count_system.cpu14.dcache.mem_side::system.l2.cpu_side           67                       # Packet count per connected master and slave (bytes)
system.tol2bus.pkt_count_system.cpu15.icache.mem_side::system.l2.cpu_side          252                       # Packet count per connected master and slave (bytes)
system.tol2bus.pkt_count_system.cpu15.dcache.mem_side::system.l2.cpu_side          310                       # Packet count per connected master and slave (bytes)
system.tol2bus.pkt_count::total                161827                       # Packet count per connected master and slave (bytes)
system.tol2bus.pkt_size_system.cpu00.icache.mem_side::system.l2.cpu_side        14016                       # Cumulative packet size per connected master and slave (bytes)
system.tol2bus.pkt_size_system.cpu00.dcache.mem_side::system.l2.cpu_side        10171                       # Cumulative packet size per connected master and slave (bytes)
system.tol2bus.pkt_size_system.cpu01.icache.mem_side::system.l2.cpu_side          448                       # Cumulative packet size per connected master and slave (bytes)
system.tol2bus.pkt_size_system.cpu01.dcache.mem_side::system.l2.cpu_side         2200                       # Cumulative packet size per connected master and slave (bytes)
system.tol2bus.pkt_size_system.cpu02.icache.mem_side::system.l2.cpu_side          512                       # Cumulative packet size per connected master and slave (bytes)
system.tol2bus.pkt_size_system.cpu02.dcache.mem_side::system.l2.cpu_side         2520                       # Cumulative packet size per connected master and slave (bytes)
system.tol2bus.pkt_size_system.cpu03.icache.mem_side::system.l2.cpu_side         6528                       # Cumulative packet size per connected master and slave (bytes)
system.tol2bus.pkt_size_system.cpu03.dcache.mem_side::system.l2.cpu_side         4568                       # Cumulative packet size per connected master and slave (bytes)
system.tol2bus.pkt_size_system.cpu04.icache.mem_side::system.l2.cpu_side          320                       # Cumulative packet size per connected master and slave (bytes)
system.tol2bus.pkt_size_system.cpu04.dcache.mem_side::system.l2.cpu_side         1880                       # Cumulative packet size per connected master and slave (bytes)
system.tol2bus.pkt_size_system.cpu05.icache.mem_side::system.l2.cpu_side          320                       # Cumulative packet size per connected master and slave (bytes)
system.tol2bus.pkt_size_system.cpu05.dcache.mem_side::system.l2.cpu_side         1688                       # Cumulative packet size per connected master and slave (bytes)
system.tol2bus.pkt_size_system.cpu06.icache.mem_side::system.l2.cpu_side         5184                       # Cumulative packet size per connected master and slave (bytes)
system.tol2bus.pkt_size_system.cpu06.dcache.mem_side::system.l2.cpu_side         4184                       # Cumulative packet size per connected master and slave (bytes)
system.tol2bus.pkt_size_system.cpu07.icache.mem_side::system.l2.cpu_side          320                       # Cumulative packet size per connected master and slave (bytes)
system.tol2bus.pkt_size_system.cpu07.dcache.mem_side::system.l2.cpu_side         1496                       # Cumulative packet size per connected master and slave (bytes)
system.tol2bus.pkt_size_system.cpu08.dcache.mem_side::system.l2.cpu_side         1816                       # Cumulative packet size per connected master and slave (bytes)
system.tol2bus.pkt_size_system.cpu09.icache.mem_side::system.l2.cpu_side         5056                       # Cumulative packet size per connected master and slave (bytes)
system.tol2bus.pkt_size_system.cpu09.dcache.mem_side::system.l2.cpu_side         3928                       # Cumulative packet size per connected master and slave (bytes)
system.tol2bus.pkt_size_system.cpu10.icache.mem_side::system.l2.cpu_side          320                       # Cumulative packet size per connected master and slave (bytes)
system.tol2bus.pkt_size_system.cpu10.dcache.mem_side::system.l2.cpu_side         1688                       # Cumulative packet size per connected master and slave (bytes)
system.tol2bus.pkt_size_system.cpu11.icache.mem_side::system.l2.cpu_side      1035200                       # Cumulative packet size per connected master and slave (bytes)
system.tol2bus.pkt_size_system.cpu11.dcache.mem_side::system.l2.cpu_side      2635747                       # Cumulative packet size per connected master and slave (bytes)
system.tol2bus.pkt_size_system.cpu12.icache.mem_side::system.l2.cpu_side       129920                       # Cumulative packet size per connected master and slave (bytes)
system.tol2bus.pkt_size_system.cpu12.dcache.mem_side::system.l2.cpu_side       240488                       # Cumulative packet size per connected master and slave (bytes)
system.tol2bus.pkt_size_system.cpu13.icache.mem_side::system.l2.cpu_side       491712                       # Cumulative packet size per connected master and slave (bytes)
system.tol2bus.pkt_size_system.cpu13.dcache.mem_side::system.l2.cpu_side      1355408                       # Cumulative packet size per connected master and slave (bytes)
system.tol2bus.pkt_size_system.cpu14.icache.mem_side::system.l2.cpu_side          320                       # Cumulative packet size per connected master and slave (bytes)
system.tol2bus.pkt_size_system.cpu14.dcache.mem_side::system.l2.cpu_side         1112                       # Cumulative packet size per connected master and slave (bytes)
system.tol2bus.pkt_size_system.cpu15.icache.mem_side::system.l2.cpu_side         9152                       # Cumulative packet size per connected master and slave (bytes)
system.tol2bus.pkt_size_system.cpu15.dcache.mem_side::system.l2.cpu_side         8600                       # Cumulative packet size per connected master and slave (bytes)
system.tol2bus.pkt_size::total                5976822                       # Cumulative packet size per connected master and slave (bytes)
system.tol2bus.snoops                           31229                       # Total snoops (count)
system.tol2bus.snoop_fanout::samples           143251                       # Request fanout histogram
system.tol2bus.snoop_fanout::mean            0.899694                       # Request fanout histogram
system.tol2bus.snoop_fanout::stdev           3.176702                       # Request fanout histogram
system.tol2bus.snoop_fanout::underflows             0      0.00%      0.00% # Request fanout histogram
system.tol2bus.snoop_fanout::0                 123003     85.87%     85.87% # Request fanout histogram
system.tol2bus.snoop_fanout::1                   8794      6.14%     92.00% # Request fanout histogram
system.tol2bus.snoop_fanout::2                   1762      1.23%     93.23% # Request fanout histogram
system.tol2bus.snoop_fanout::3                    665      0.46%     93.70% # Request fanout histogram
system.tol2bus.snoop_fanout::4                    293      0.20%     93.90% # Request fanout histogram
system.tol2bus.snoop_fanout::5                    366      0.26%     94.16% # Request fanout histogram
system.tol2bus.snoop_fanout::6                    203      0.14%     94.30% # Request fanout histogram
system.tol2bus.snoop_fanout::7                    113      0.08%     94.38% # Request fanout histogram
system.tol2bus.snoop_fanout::8                    118      0.08%     94.46% # Request fanout histogram
system.tol2bus.snoop_fanout::9                    173      0.12%     94.58% # Request fanout histogram
system.tol2bus.snoop_fanout::10                   251      0.18%     94.76% # Request fanout histogram
system.tol2bus.snoop_fanout::11                   359      0.25%     95.01% # Request fanout histogram
system.tol2bus.snoop_fanout::12                   701      0.49%     95.50% # Request fanout histogram
system.tol2bus.snoop_fanout::13                  1446      1.01%     96.51% # Request fanout histogram
system.tol2bus.snoop_fanout::14                  1776      1.24%     97.75% # Request fanout histogram
system.tol2bus.snoop_fanout::15                  3124      2.18%     99.93% # Request fanout histogram
system.tol2bus.snoop_fanout::16                   104      0.07%    100.00% # Request fanout histogram
system.tol2bus.snoop_fanout::17                     0      0.00%    100.00% # Request fanout histogram
system.tol2bus.snoop_fanout::18                     0      0.00%    100.00% # Request fanout histogram
system.tol2bus.snoop_fanout::19                     0      0.00%    100.00% # Request fanout histogram
system.tol2bus.snoop_fanout::20                     0      0.00%    100.00% # Request fanout histogram
system.tol2bus.snoop_fanout::21                     0      0.00%    100.00% # Request fanout histogram
system.tol2bus.snoop_fanout::22                     0      0.00%    100.00% # Request fanout histogram
system.tol2bus.snoop_fanout::23                     0      0.00%    100.00% # Request fanout histogram
system.tol2bus.snoop_fanout::24                     0      0.00%    100.00% # Request fanout histogram
system.tol2bus.snoop_fanout::25                     0      0.00%    100.00% # Request fanout histogram
system.tol2bus.snoop_fanout::26                     0      0.00%    100.00% # Request fanout histogram
system.tol2bus.snoop_fanout::27                     0      0.00%    100.00% # Request fanout histogram
system.tol2bus.snoop_fanout::28                     0      0.00%    100.00% # Request fanout histogram
system.tol2bus.snoop_fanout::29                     0      0.00%    100.00% # Request fanout histogram
system.tol2bus.snoop_fanout::30                     0      0.00%    100.00% # Request fanout histogram
system.tol2bus.snoop_fanout::31                     0      0.00%    100.00% # Request fanout histogram
system.tol2bus.snoop_fanout::32                     0      0.00%    100.00% # Request fanout histogram
system.tol2bus.snoop_fanout::overflows              0      0.00%    100.00% # Request fanout histogram
system.tol2bus.snoop_fanout::min_value              0                       # Request fanout histogram
system.tol2bus.snoop_fanout::max_value             16                       # Request fanout histogram
system.tol2bus.snoop_fanout::total             143251                       # Request fanout histogram
system.tsunami.ethernet.descDMAReads                0                       # Number of descriptors the device read w/ DMA
system.tsunami.ethernet.descDMAWrites               0                       # Number of descriptors the device wrote w/ DMA
system.tsunami.ethernet.descDmaReadBytes            0                       # number of descriptor bytes read w/ DMA
system.tsunami.ethernet.descDmaWriteBytes            0                       # number of descriptor bytes write w/ DMA
system.tsunami.ethernet.postedSwi                   0                       # number of software interrupts posted to CPU
system.tsunami.ethernet.coalescedSwi              nan                       # average number of Swi's coalesced into each post
system.tsunami.ethernet.totalSwi                    0                       # total number of Swi written to ISR
system.tsunami.ethernet.postedRxIdle                0                       # number of rxIdle interrupts posted to CPU
system.tsunami.ethernet.coalescedRxIdle           nan                       # average number of RxIdle's coalesced into each post
system.tsunami.ethernet.totalRxIdle                 0                       # total number of RxIdle written to ISR
system.tsunami.ethernet.postedRxOk                  0                       # number of RxOk interrupts posted to CPU
system.tsunami.ethernet.coalescedRxOk             nan                       # average number of RxOk's coalesced into each post
system.tsunami.ethernet.totalRxOk                   0                       # total number of RxOk written to ISR
system.tsunami.ethernet.postedRxDesc                0                       # number of RxDesc interrupts posted to CPU
system.tsunami.ethernet.coalescedRxDesc           nan                       # average number of RxDesc's coalesced into each post
system.tsunami.ethernet.totalRxDesc                 0                       # total number of RxDesc written to ISR
system.tsunami.ethernet.postedTxOk                  0                       # number of TxOk interrupts posted to CPU
system.tsunami.ethernet.coalescedTxOk             nan                       # average number of TxOk's coalesced into each post
system.tsunami.ethernet.totalTxOk                   0                       # total number of TxOk written to ISR
system.tsunami.ethernet.postedTxIdle                0                       # number of TxIdle interrupts posted to CPU
system.tsunami.ethernet.coalescedTxIdle           nan                       # average number of TxIdle's coalesced into each post
system.tsunami.ethernet.totalTxIdle                 0                       # total number of TxIdle written to ISR
system.tsunami.ethernet.postedTxDesc                0                       # number of TxDesc interrupts posted to CPU
system.tsunami.ethernet.coalescedTxDesc           nan                       # average number of TxDesc's coalesced into each post
system.tsunami.ethernet.totalTxDesc                 0                       # total number of TxDesc written to ISR
system.tsunami.ethernet.postedRxOrn                 0                       # number of RxOrn posted to CPU
system.tsunami.ethernet.coalescedRxOrn            nan                       # average number of RxOrn's coalesced into each post
system.tsunami.ethernet.totalRxOrn                  0                       # total number of RxOrn written to ISR
system.tsunami.ethernet.coalescedTotal            nan                       # average number of interrupts coalesced into each post
system.tsunami.ethernet.postedInterrupts            0                       # number of posts to CPU
system.tsunami.ethernet.droppedPackets              0                       # number of packets dropped

---------- End Simulation Statistics   ----------
