
---------- Begin Simulation Statistics ----------
sim_seconds                                  0.000088                      
sim_ticks                                    87707000                      
final_tick                                   87707000                      
sim_freq                                 1000000000000                      
host_inst_rate                                1004816                      
host_op_rate                                  1004778                      
host_tick_rate                              130103429                      
host_mem_usage                                 276508                      
host_seconds                                     0.67                      
sim_insts                                      677333                      
sim_ops                                        677333                      
system.voltage_domain.voltage                       1                      
system.clk_domain.clock                          1000                      
system.physmem.pwrStateResidencyTicks::UNDEFINED     87707000                      
system.physmem.bytes_read::cpu0.inst            18048                      
system.physmem.bytes_read::cpu0.data            10560                      
system.physmem.bytes_read::cpu1.inst             3968                      
system.physmem.bytes_read::cpu1.data             1280                      
system.physmem.bytes_read::cpu2.inst              192                      
system.physmem.bytes_read::cpu2.data              832                      
system.physmem.bytes_read::cpu3.inst               64                      
system.physmem.bytes_read::cpu3.data              832                      
system.physmem.bytes_read::total                35776                      
system.physmem.bytes_inst_read::cpu0.inst        18048                      
system.physmem.bytes_inst_read::cpu1.inst         3968                      
system.physmem.bytes_inst_read::cpu2.inst          192                      
system.physmem.bytes_inst_read::cpu3.inst           64                      
system.physmem.bytes_inst_read::total           22272                      
system.physmem.num_reads::cpu0.inst               282                      
system.physmem.num_reads::cpu0.data               165                      
system.physmem.num_reads::cpu1.inst                62                      
system.physmem.num_reads::cpu1.data                20                      
system.physmem.num_reads::cpu2.inst                 3                      
system.physmem.num_reads::cpu2.data                13                      
system.physmem.num_reads::cpu3.inst                 1                      
system.physmem.num_reads::cpu3.data                13                      
system.physmem.num_reads::total                   559                      
system.physmem.bw_read::cpu0.inst           205776050                      
system.physmem.bw_read::cpu0.data           120400880                      
system.physmem.bw_read::cpu1.inst            45241543                      
system.physmem.bw_read::cpu1.data            14594046                      
system.physmem.bw_read::cpu2.inst             2189107                      
system.physmem.bw_read::cpu2.data             9486130                      
system.physmem.bw_read::cpu3.inst              729702                      
system.physmem.bw_read::cpu3.data             9486130                      
system.physmem.bw_read::total               407903588                      
system.physmem.bw_inst_read::cpu0.inst      205776050                      
system.physmem.bw_inst_read::cpu1.inst       45241543                      
system.physmem.bw_inst_read::cpu2.inst        2189107                      
system.physmem.bw_inst_read::cpu3.inst         729702                      
system.physmem.bw_inst_read::total          253936402                      
system.physmem.bw_total::cpu0.inst          205776050                      
system.physmem.bw_total::cpu0.data          120400880                      
system.physmem.bw_total::cpu1.inst           45241543                      
system.physmem.bw_total::cpu1.data           14594046                      
system.physmem.bw_total::cpu2.inst            2189107                      
system.physmem.bw_total::cpu2.data            9486130                      
system.physmem.bw_total::cpu3.inst             729702                      
system.physmem.bw_total::cpu3.data            9486130                      
system.physmem.bw_total::total              407903588                      
system.pwrStateResidencyTicks::UNDEFINED     87707000                      
system.cpu_clk_domain.clock                       500                      
system.cpu0.workload.numSyscalls                   26                      
system.cpu0.pwrStateResidencyTicks::ON       87707000                      
system.cpu0.numCycles                          175415                      
system.cpu0.numWorkItemsStarted                     0                      
system.cpu0.numWorkItemsCompleted                   0                      
system.cpu0.committedInsts                     175326                      
system.cpu0.committedOps                       175326                      
system.cpu0.num_int_alu_accesses               120376                      
system.cpu0.num_fp_alu_accesses                     0                      
system.cpu0.num_func_calls                        390                      
system.cpu0.num_conditional_control_insts        28824                      
system.cpu0.num_int_insts                      120376                      
system.cpu0.num_fp_insts                            0                      
system.cpu0.num_int_register_reads             349286                      
system.cpu0.num_int_register_writes            121983                      
system.cpu0.num_fp_register_reads                   0                      
system.cpu0.num_fp_register_writes                  0                      
system.cpu0.num_mem_refs                        82397                      
system.cpu0.num_load_insts                      54591                      
system.cpu0.num_store_insts                     27806                      
system.cpu0.num_idle_cycles                         0                      
system.cpu0.num_busy_cycles                    175415                      
system.cpu0.not_idle_fraction                       1                      
system.cpu0.idle_fraction                           0                      
system.cpu0.Branches                            29689                      
system.cpu0.op_class::No_OpClass                26416     15.06%     15.06%
system.cpu0.op_class::IntAlu                    66491     37.91%     52.97%
system.cpu0.op_class::IntMult                       0      0.00%     52.97%
system.cpu0.op_class::IntDiv                        0      0.00%     52.97%
system.cpu0.op_class::FloatAdd                      0      0.00%     52.97%
system.cpu0.op_class::FloatCmp                      0      0.00%     52.97%
system.cpu0.op_class::FloatCvt                      0      0.00%     52.97%
system.cpu0.op_class::FloatMult                     0      0.00%     52.97%
system.cpu0.op_class::FloatMultAcc                  0      0.00%     52.97%
system.cpu0.op_class::FloatDiv                      0      0.00%     52.97%
system.cpu0.op_class::FloatMisc                     0      0.00%     52.97%
system.cpu0.op_class::FloatSqrt                     0      0.00%     52.97%
system.cpu0.op_class::SimdAdd                       0      0.00%     52.97%
system.cpu0.op_class::SimdAddAcc                    0      0.00%     52.97%
system.cpu0.op_class::SimdAlu                       0      0.00%     52.97%
system.cpu0.op_class::SimdCmp                       0      0.00%     52.97%
system.cpu0.op_class::SimdCvt                       0      0.00%     52.97%
system.cpu0.op_class::SimdMisc                      0      0.00%     52.97%
system.cpu0.op_class::SimdMult                      0      0.00%     52.97%
system.cpu0.op_class::SimdMultAcc                   0      0.00%     52.97%
system.cpu0.op_class::SimdShift                     0      0.00%     52.97%
system.cpu0.op_class::SimdShiftAcc                  0      0.00%     52.97%
system.cpu0.op_class::SimdSqrt                      0      0.00%     52.97%
system.cpu0.op_class::SimdFloatAdd                  0      0.00%     52.97%
system.cpu0.op_class::SimdFloatAlu                  0      0.00%     52.97%
system.cpu0.op_class::SimdFloatCmp                  0      0.00%     52.97%
system.cpu0.op_class::SimdFloatCvt                  0      0.00%     52.97%
system.cpu0.op_class::SimdFloatDiv                  0      0.00%     52.97%
system.cpu0.op_class::SimdFloatMisc                 0      0.00%     52.97%
system.cpu0.op_class::SimdFloatMult                 0      0.00%     52.97%
system.cpu0.op_class::SimdFloatMultAcc              0      0.00%     52.97%
system.cpu0.op_class::SimdFloatSqrt                 0      0.00%     52.97%
system.cpu0.op_class::MemRead                   54675     31.17%     84.15%
system.cpu0.op_class::MemWrite                  27806     15.85%    100.00%
system.cpu0.op_class::FloatMemRead                  0      0.00%    100.00%
system.cpu0.op_class::FloatMemWrite                 0      0.00%    100.00%
system.cpu0.op_class::IprAccess                     0      0.00%    100.00%
system.cpu0.op_class::InstPrefetch                  0      0.00%    100.00%
system.cpu0.op_class::total                    175388                      
system.cpu0.dcache.tags.pwrStateResidencyTicks::UNDEFINED     87707000                      
system.cpu0.dcache.tags.replacements                2                      
system.cpu0.dcache.tags.tagsinuse          150.745705                      
system.cpu0.dcache.tags.total_refs              81882                      
system.cpu0.dcache.tags.sampled_refs              167                      
system.cpu0.dcache.tags.avg_refs           490.311377                      
system.cpu0.dcache.tags.warmup_cycle                0                      
system.cpu0.dcache.tags.occ_blocks::cpu0.data   150.745705                      
system.cpu0.dcache.tags.occ_percent::cpu0.data     0.294425                      
system.cpu0.dcache.tags.occ_percent::total     0.294425                      
system.cpu0.dcache.tags.occ_task_id_blocks::1024          165                      
system.cpu0.dcache.tags.age_task_id_blocks_1024::0           16                      
system.cpu0.dcache.tags.age_task_id_blocks_1024::1          149                      
system.cpu0.dcache.tags.occ_task_id_percent::1024     0.322266                      
system.cpu0.dcache.tags.tag_accesses           329804                      
system.cpu0.dcache.tags.data_accesses          329804                      
system.cpu0.dcache.pwrStateResidencyTicks::UNDEFINED     87707000                      
system.cpu0.dcache.ReadReq_hits::cpu0.data        54430                      
system.cpu0.dcache.ReadReq_hits::total          54430                      
system.cpu0.dcache.WriteReq_hits::cpu0.data        27578                      
system.cpu0.dcache.WriteReq_hits::total         27578                      
system.cpu0.dcache.SwapReq_hits::cpu0.data           15                      
system.cpu0.dcache.SwapReq_hits::total             15                      
system.cpu0.dcache.demand_hits::cpu0.data        82008                      
system.cpu0.dcache.demand_hits::total           82008                      
system.cpu0.dcache.overall_hits::cpu0.data        82008                      
system.cpu0.dcache.overall_hits::total          82008                      
system.cpu0.dcache.ReadReq_misses::cpu0.data          151                      
system.cpu0.dcache.ReadReq_misses::total          151                      
system.cpu0.dcache.WriteReq_misses::cpu0.data          177                      
system.cpu0.dcache.WriteReq_misses::total          177                      
system.cpu0.dcache.SwapReq_misses::cpu0.data           27                      
system.cpu0.dcache.SwapReq_misses::total           27                      
system.cpu0.dcache.demand_misses::cpu0.data          328                      
system.cpu0.dcache.demand_misses::total           328                      
system.cpu0.dcache.overall_misses::cpu0.data          328                      
system.cpu0.dcache.overall_misses::total          328                      
system.cpu0.dcache.ReadReq_accesses::cpu0.data        54581                      
system.cpu0.dcache.ReadReq_accesses::total        54581                      
system.cpu0.dcache.WriteReq_accesses::cpu0.data        27755                      
system.cpu0.dcache.WriteReq_accesses::total        27755                      
system.cpu0.dcache.SwapReq_accesses::cpu0.data           42                      
system.cpu0.dcache.SwapReq_accesses::total           42                      
system.cpu0.dcache.demand_accesses::cpu0.data        82336                      
system.cpu0.dcache.demand_accesses::total        82336                      
system.cpu0.dcache.overall_accesses::cpu0.data        82336                      
system.cpu0.dcache.overall_accesses::total        82336                      
system.cpu0.dcache.ReadReq_miss_rate::cpu0.data     0.002767                      
system.cpu0.dcache.ReadReq_miss_rate::total     0.002767                      
system.cpu0.dcache.WriteReq_miss_rate::cpu0.data     0.006377                      
system.cpu0.dcache.WriteReq_miss_rate::total     0.006377                      
system.cpu0.dcache.SwapReq_miss_rate::cpu0.data     0.642857                      
system.cpu0.dcache.SwapReq_miss_rate::total     0.642857                      
system.cpu0.dcache.demand_miss_rate::cpu0.data     0.003984                      
system.cpu0.dcache.demand_miss_rate::total     0.003984                      
system.cpu0.dcache.overall_miss_rate::cpu0.data     0.003984                      
system.cpu0.dcache.overall_miss_rate::total     0.003984                      
system.cpu0.dcache.blocked_cycles::no_mshrs            0                      
system.cpu0.dcache.blocked_cycles::no_targets            0                      
system.cpu0.dcache.blocked::no_mshrs                0                      
system.cpu0.dcache.blocked::no_targets              0                      
system.cpu0.dcache.avg_blocked_cycles::no_mshrs          nan                      
system.cpu0.dcache.avg_blocked_cycles::no_targets          nan                      
system.cpu0.dcache.writebacks::writebacks            1                      
system.cpu0.dcache.writebacks::total                1                      
system.cpu0.icache.tags.pwrStateResidencyTicks::UNDEFINED     87707000                      
system.cpu0.icache.tags.replacements              215                      
system.cpu0.icache.tags.tagsinuse          222.772732                      
system.cpu0.icache.tags.total_refs             174921                      
system.cpu0.icache.tags.sampled_refs              467                      
system.cpu0.icache.tags.avg_refs           374.563169                      
system.cpu0.icache.tags.warmup_cycle                0                      
system.cpu0.icache.tags.occ_blocks::cpu0.inst   222.772732                      
system.cpu0.icache.tags.occ_percent::cpu0.inst     0.435103                      
system.cpu0.icache.tags.occ_percent::total     0.435103                      
system.cpu0.icache.tags.occ_task_id_blocks::1024          252                      
system.cpu0.icache.tags.age_task_id_blocks_1024::0           53                      
system.cpu0.icache.tags.age_task_id_blocks_1024::1          199                      
system.cpu0.icache.tags.occ_task_id_percent::1024     0.492188                      
system.cpu0.icache.tags.tag_accesses           175855                      
system.cpu0.icache.tags.data_accesses          175855                      
system.cpu0.icache.pwrStateResidencyTicks::UNDEFINED     87707000                      
system.cpu0.icache.ReadReq_hits::cpu0.inst       174921                      
system.cpu0.icache.ReadReq_hits::total         174921                      
system.cpu0.icache.demand_hits::cpu0.inst       174921                      
system.cpu0.icache.demand_hits::total          174921                      
system.cpu0.icache.overall_hits::cpu0.inst       174921                      
system.cpu0.icache.overall_hits::total         174921                      
system.cpu0.icache.ReadReq_misses::cpu0.inst          467                      
system.cpu0.icache.ReadReq_misses::total          467                      
system.cpu0.icache.demand_misses::cpu0.inst          467                      
system.cpu0.icache.demand_misses::total           467                      
system.cpu0.icache.overall_misses::cpu0.inst          467                      
system.cpu0.icache.overall_misses::total          467                      
system.cpu0.icache.ReadReq_accesses::cpu0.inst       175388                      
system.cpu0.icache.ReadReq_accesses::total       175388                      
system.cpu0.icache.demand_accesses::cpu0.inst       175388                      
system.cpu0.icache.demand_accesses::total       175388                      
system.cpu0.icache.overall_accesses::cpu0.inst       175388                      
system.cpu0.icache.overall_accesses::total       175388                      
system.cpu0.icache.ReadReq_miss_rate::cpu0.inst     0.002663                      
system.cpu0.icache.ReadReq_miss_rate::total     0.002663                      
system.cpu0.icache.demand_miss_rate::cpu0.inst     0.002663                      
system.cpu0.icache.demand_miss_rate::total     0.002663                      
system.cpu0.icache.overall_miss_rate::cpu0.inst     0.002663                      
system.cpu0.icache.overall_miss_rate::total     0.002663                      
system.cpu0.icache.blocked_cycles::no_mshrs            0                      
system.cpu0.icache.blocked_cycles::no_targets            0                      
system.cpu0.icache.blocked::no_mshrs                0                      
system.cpu0.icache.blocked::no_targets              0                      
system.cpu0.icache.avg_blocked_cycles::no_mshrs          nan                      
system.cpu0.icache.avg_blocked_cycles::no_targets          nan                      
system.cpu0.icache.writebacks::writebacks          215                      
system.cpu0.icache.writebacks::total              215                      
system.cpu1.pwrStateResidencyTicks::ON       87707000                      
system.cpu1.numCycles                          173297                      
system.cpu1.numWorkItemsStarted                     0                      
system.cpu1.numWorkItemsCompleted                   0                      
system.cpu1.committedInsts                     167400                      
system.cpu1.committedOps                       167400                      
system.cpu1.num_int_alu_accesses               107326                      
system.cpu1.num_fp_alu_accesses                     0                      
system.cpu1.num_func_calls                        633                      
system.cpu1.num_conditional_control_insts        34043                      
system.cpu1.num_int_insts                      107326                      
system.cpu1.num_fp_insts                            0                      
system.cpu1.num_int_register_reads             254436                      
system.cpu1.num_int_register_writes             94218                      
system.cpu1.num_fp_register_reads                   0                      
system.cpu1.num_fp_register_writes                  0                      
system.cpu1.num_mem_refs                        49494                      
system.cpu1.num_load_insts                      39345                      
system.cpu1.num_store_insts                     10149                      
system.cpu1.num_idle_cycles               7872.827276                      
system.cpu1.num_busy_cycles              165424.172724                      
system.cpu1.not_idle_fraction                0.954570                      
system.cpu1.idle_fraction                    0.045430                      
system.cpu1.Branches                            35694                      
system.cpu1.op_class::No_OpClass                26475     15.81%     15.81%
system.cpu1.op_class::IntAlu                    71873     42.93%     58.74%
system.cpu1.op_class::IntMult                       0      0.00%     58.74%
system.cpu1.op_class::IntDiv                        0      0.00%     58.74%
system.cpu1.op_class::FloatAdd                      0      0.00%     58.74%
system.cpu1.op_class::FloatCmp                      0      0.00%     58.74%
system.cpu1.op_class::FloatCvt                      0      0.00%     58.74%
system.cpu1.op_class::FloatMult                     0      0.00%     58.74%
system.cpu1.op_class::FloatMultAcc                  0      0.00%     58.74%
system.cpu1.op_class::FloatDiv                      0      0.00%     58.74%
system.cpu1.op_class::FloatMisc                     0      0.00%     58.74%
system.cpu1.op_class::FloatSqrt                     0      0.00%     58.74%
system.cpu1.op_class::SimdAdd                       0      0.00%     58.74%
system.cpu1.op_class::SimdAddAcc                    0      0.00%     58.74%
system.cpu1.op_class::SimdAlu                       0      0.00%     58.74%
system.cpu1.op_class::SimdCmp                       0      0.00%     58.74%
system.cpu1.op_class::SimdCvt                       0      0.00%     58.74%
system.cpu1.op_class::SimdMisc                      0      0.00%     58.74%
system.cpu1.op_class::SimdMult                      0      0.00%     58.74%
system.cpu1.op_class::SimdMultAcc                   0      0.00%     58.74%
system.cpu1.op_class::SimdShift                     0      0.00%     58.74%
system.cpu1.op_class::SimdShiftAcc                  0      0.00%     58.74%
system.cpu1.op_class::SimdSqrt                      0      0.00%     58.74%
system.cpu1.op_class::SimdFloatAdd                  0      0.00%     58.74%
system.cpu1.op_class::SimdFloatAlu                  0      0.00%     58.74%
system.cpu1.op_class::SimdFloatCmp                  0      0.00%     58.74%
system.cpu1.op_class::SimdFloatCvt                  0      0.00%     58.74%
system.cpu1.op_class::SimdFloatDiv                  0      0.00%     58.74%
system.cpu1.op_class::SimdFloatMisc                 0      0.00%     58.74%
system.cpu1.op_class::SimdFloatMult                 0      0.00%     58.74%
system.cpu1.op_class::SimdFloatMultAcc              0      0.00%     58.74%
system.cpu1.op_class::SimdFloatSqrt                 0      0.00%     58.74%
system.cpu1.op_class::MemRead                   58935     35.20%     93.94%
system.cpu1.op_class::MemWrite                  10149      6.06%    100.00%
system.cpu1.op_class::FloatMemRead                  0      0.00%    100.00%
system.cpu1.op_class::FloatMemWrite                 0      0.00%    100.00%
system.cpu1.op_class::IprAccess                     0      0.00%    100.00%
system.cpu1.op_class::InstPrefetch                  0      0.00%    100.00%
system.cpu1.op_class::total                    167432                      
system.cpu1.dcache.tags.pwrStateResidencyTicks::UNDEFINED     87707000                      
system.cpu1.dcache.tags.replacements                0                      
system.cpu1.dcache.tags.tagsinuse           30.295170                      
system.cpu1.dcache.tags.total_refs              21529                      
system.cpu1.dcache.tags.sampled_refs               26                      
system.cpu1.dcache.tags.avg_refs           828.038462                      
system.cpu1.dcache.tags.warmup_cycle                0                      
system.cpu1.dcache.tags.occ_blocks::cpu1.data    30.295170                      
system.cpu1.dcache.tags.occ_percent::cpu1.data     0.059170                      
system.cpu1.dcache.tags.occ_percent::total     0.059170                      
system.cpu1.dcache.tags.occ_task_id_blocks::1024           26                      
system.cpu1.dcache.tags.age_task_id_blocks_1024::1           26                      
system.cpu1.dcache.tags.occ_task_id_percent::1024     0.050781                      
system.cpu1.dcache.tags.tag_accesses           198211                      
system.cpu1.dcache.tags.data_accesses          198211                      
system.cpu1.dcache.pwrStateResidencyTicks::UNDEFINED     87707000                      
system.cpu1.dcache.ReadReq_hits::cpu1.data        39152                      
system.cpu1.dcache.ReadReq_hits::total          39152                      
system.cpu1.dcache.WriteReq_hits::cpu1.data         9968                      
system.cpu1.dcache.WriteReq_hits::total          9968                      
system.cpu1.dcache.SwapReq_hits::cpu1.data           16                      
system.cpu1.dcache.SwapReq_hits::total             16                      
system.cpu1.dcache.demand_hits::cpu1.data        49120                      
system.cpu1.dcache.demand_hits::total           49120                      
system.cpu1.dcache.overall_hits::cpu1.data        49120                      
system.cpu1.dcache.overall_hits::total          49120                      
system.cpu1.dcache.ReadReq_misses::cpu1.data          185                      
system.cpu1.dcache.ReadReq_misses::total          185                      
system.cpu1.dcache.WriteReq_misses::cpu1.data          102                      
system.cpu1.dcache.WriteReq_misses::total          102                      
system.cpu1.dcache.SwapReq_misses::cpu1.data           61                      
system.cpu1.dcache.SwapReq_misses::total           61                      
system.cpu1.dcache.demand_misses::cpu1.data          287                      
system.cpu1.dcache.demand_misses::total           287                      
system.cpu1.dcache.overall_misses::cpu1.data          287                      
system.cpu1.dcache.overall_misses::total          287                      
system.cpu1.dcache.ReadReq_accesses::cpu1.data        39337                      
system.cpu1.dcache.ReadReq_accesses::total        39337                      
system.cpu1.dcache.WriteReq_accesses::cpu1.data        10070                      
system.cpu1.dcache.WriteReq_accesses::total        10070                      
system.cpu1.dcache.SwapReq_accesses::cpu1.data           77                      
system.cpu1.dcache.SwapReq_accesses::total           77                      
system.cpu1.dcache.demand_accesses::cpu1.data        49407                      
system.cpu1.dcache.demand_accesses::total        49407                      
system.cpu1.dcache.overall_accesses::cpu1.data        49407                      
system.cpu1.dcache.overall_accesses::total        49407                      
system.cpu1.dcache.ReadReq_miss_rate::cpu1.data     0.004703                      
system.cpu1.dcache.ReadReq_miss_rate::total     0.004703                      
system.cpu1.dcache.WriteReq_miss_rate::cpu1.data     0.010129                      
system.cpu1.dcache.WriteReq_miss_rate::total     0.010129                      
system.cpu1.dcache.SwapReq_miss_rate::cpu1.data     0.792208                      
system.cpu1.dcache.SwapReq_miss_rate::total     0.792208                      
system.cpu1.dcache.demand_miss_rate::cpu1.data     0.005809                      
system.cpu1.dcache.demand_miss_rate::total     0.005809                      
system.cpu1.dcache.overall_miss_rate::cpu1.data     0.005809                      
system.cpu1.dcache.overall_miss_rate::total     0.005809                      
system.cpu1.dcache.blocked_cycles::no_mshrs            0                      
system.cpu1.dcache.blocked_cycles::no_targets            0                      
system.cpu1.dcache.blocked::no_mshrs                0                      
system.cpu1.dcache.blocked::no_targets              0                      
system.cpu1.dcache.avg_blocked_cycles::no_mshrs          nan                      
system.cpu1.dcache.avg_blocked_cycles::no_targets          nan                      
system.cpu1.icache.tags.pwrStateResidencyTicks::UNDEFINED     87707000                      
system.cpu1.icache.tags.replacements              278                      
system.cpu1.icache.tags.tagsinuse           76.752158                      
system.cpu1.icache.tags.total_refs             167074                      
system.cpu1.icache.tags.sampled_refs              358                      
system.cpu1.icache.tags.avg_refs           466.687151                      
system.cpu1.icache.tags.warmup_cycle                0                      
system.cpu1.icache.tags.occ_blocks::cpu1.inst    76.752158                      
system.cpu1.icache.tags.occ_percent::cpu1.inst     0.149907                      
system.cpu1.icache.tags.occ_percent::total     0.149907                      
system.cpu1.icache.tags.occ_task_id_blocks::1024           80                      
system.cpu1.icache.tags.age_task_id_blocks_1024::0            9                      
system.cpu1.icache.tags.age_task_id_blocks_1024::1           71                      
system.cpu1.icache.tags.occ_task_id_percent::1024     0.156250                      
system.cpu1.icache.tags.tag_accesses           167790                      
system.cpu1.icache.tags.data_accesses          167790                      
system.cpu1.icache.pwrStateResidencyTicks::UNDEFINED     87707000                      
system.cpu1.icache.ReadReq_hits::cpu1.inst       167074                      
system.cpu1.icache.ReadReq_hits::total         167074                      
system.cpu1.icache.demand_hits::cpu1.inst       167074                      
system.cpu1.icache.demand_hits::total          167074                      
system.cpu1.icache.overall_hits::cpu1.inst       167074                      
system.cpu1.icache.overall_hits::total         167074                      
system.cpu1.icache.ReadReq_misses::cpu1.inst          358                      
system.cpu1.icache.ReadReq_misses::total          358                      
system.cpu1.icache.demand_misses::cpu1.inst          358                      
system.cpu1.icache.demand_misses::total           358                      
system.cpu1.icache.overall_misses::cpu1.inst          358                      
system.cpu1.icache.overall_misses::total          358                      
system.cpu1.icache.ReadReq_accesses::cpu1.inst       167432                      
system.cpu1.icache.ReadReq_accesses::total       167432                      
system.cpu1.icache.demand_accesses::cpu1.inst       167432                      
system.cpu1.icache.demand_accesses::total       167432                      
system.cpu1.icache.overall_accesses::cpu1.inst       167432                      
system.cpu1.icache.overall_accesses::total       167432                      
system.cpu1.icache.ReadReq_miss_rate::cpu1.inst     0.002138                      
system.cpu1.icache.ReadReq_miss_rate::total     0.002138                      
system.cpu1.icache.demand_miss_rate::cpu1.inst     0.002138                      
system.cpu1.icache.demand_miss_rate::total     0.002138                      
system.cpu1.icache.overall_miss_rate::cpu1.inst     0.002138                      
system.cpu1.icache.overall_miss_rate::total     0.002138                      
system.cpu1.icache.blocked_cycles::no_mshrs            0                      
system.cpu1.icache.blocked_cycles::no_targets            0                      
system.cpu1.icache.blocked::no_mshrs                0                      
system.cpu1.icache.blocked::no_targets              0                      
system.cpu1.icache.avg_blocked_cycles::no_mshrs          nan                      
system.cpu1.icache.avg_blocked_cycles::no_targets          nan                      
system.cpu1.icache.writebacks::writebacks          278                      
system.cpu1.icache.writebacks::total              278                      
system.cpu2.pwrStateResidencyTicks::ON       87707000                      
system.cpu2.numCycles                          173296                      
system.cpu2.numWorkItemsStarted                     0                      
system.cpu2.numWorkItemsCompleted                   0                      
system.cpu2.committedInsts                     167335                      
system.cpu2.committedOps                       167335                      
system.cpu2.num_int_alu_accesses               114196                      
system.cpu2.num_fp_alu_accesses                     0                      
system.cpu2.num_func_calls                        633                      
system.cpu2.num_conditional_control_insts        30577                      
system.cpu2.num_int_insts                      114196                      
system.cpu2.num_fp_insts                            0                      
system.cpu2.num_int_register_reads             295784                      
system.cpu2.num_int_register_writes            111461                      
system.cpu2.num_fp_register_reads                   0                      
system.cpu2.num_fp_register_writes                  0                      
system.cpu2.num_mem_refs                        59830                      
system.cpu2.num_load_insts                      42793                      
system.cpu2.num_store_insts                     17037                      
system.cpu2.num_idle_cycles               7936.997017                      
system.cpu2.num_busy_cycles              165359.002983                      
system.cpu2.not_idle_fraction                0.954200                      
system.cpu2.idle_fraction                    0.045800                      
system.cpu2.Branches                            32221                      
system.cpu2.op_class::No_OpClass                23013     13.75%     13.75%
system.cpu2.op_class::IntAlu                    75303     44.99%     58.74%
system.cpu2.op_class::IntMult                       0      0.00%     58.74%
system.cpu2.op_class::IntDiv                        0      0.00%     58.74%
system.cpu2.op_class::FloatAdd                      0      0.00%     58.74%
system.cpu2.op_class::FloatCmp                      0      0.00%     58.74%
system.cpu2.op_class::FloatCvt                      0      0.00%     58.74%
system.cpu2.op_class::FloatMult                     0      0.00%     58.74%
system.cpu2.op_class::FloatMultAcc                  0      0.00%     58.74%
system.cpu2.op_class::FloatDiv                      0      0.00%     58.74%
system.cpu2.op_class::FloatMisc                     0      0.00%     58.74%
system.cpu2.op_class::FloatSqrt                     0      0.00%     58.74%
system.cpu2.op_class::SimdAdd                       0      0.00%     58.74%
system.cpu2.op_class::SimdAddAcc                    0      0.00%     58.74%
system.cpu2.op_class::SimdAlu                       0      0.00%     58.74%
system.cpu2.op_class::SimdCmp                       0      0.00%     58.74%
system.cpu2.op_class::SimdCvt                       0      0.00%     58.74%
system.cpu2.op_class::SimdMisc                      0      0.00%     58.74%
system.cpu2.op_class::SimdMult                      0      0.00%     58.74%
system.cpu2.op_class::SimdMultAcc                   0      0.00%     58.74%
system.cpu2.op_class::SimdShift                     0      0.00%     58.74%
system.cpu2.op_class::SimdShiftAcc                  0      0.00%     58.74%
system.cpu2.op_class::SimdSqrt                      0      0.00%     58.74%
system.cpu2.op_class::SimdFloatAdd                  0      0.00%     58.74%
system.cpu2.op_class::SimdFloatAlu                  0      0.00%     58.74%
system.cpu2.op_class::SimdFloatCmp                  0      0.00%     58.74%
system.cpu2.op_class::SimdFloatCvt                  0      0.00%     58.74%
system.cpu2.op_class::SimdFloatDiv                  0      0.00%     58.74%
system.cpu2.op_class::SimdFloatMisc                 0      0.00%     58.74%
system.cpu2.op_class::SimdFloatMult                 0      0.00%     58.74%
system.cpu2.op_class::SimdFloatMultAcc              0      0.00%     58.74%
system.cpu2.op_class::SimdFloatSqrt                 0      0.00%     58.74%
system.cpu2.op_class::MemRead                   52014     31.08%     89.82%
system.cpu2.op_class::MemWrite                  17037     10.18%    100.00%
system.cpu2.op_class::FloatMemRead                  0      0.00%    100.00%
system.cpu2.op_class::FloatMemWrite                 0      0.00%    100.00%
system.cpu2.op_class::IprAccess                     0      0.00%    100.00%
system.cpu2.op_class::InstPrefetch                  0      0.00%    100.00%
system.cpu2.op_class::total                    167367                      
system.cpu2.dcache.tags.pwrStateResidencyTicks::UNDEFINED     87707000                      
system.cpu2.dcache.tags.replacements                0                      
system.cpu2.dcache.tags.tagsinuse           29.575165                      
system.cpu2.dcache.tags.total_refs              35457                      
system.cpu2.dcache.tags.sampled_refs               27                      
system.cpu2.dcache.tags.avg_refs          1313.222222                      
system.cpu2.dcache.tags.warmup_cycle                0                      
system.cpu2.dcache.tags.occ_blocks::cpu2.data    29.575165                      
system.cpu2.dcache.tags.occ_percent::cpu2.data     0.057764                      
system.cpu2.dcache.tags.occ_percent::total     0.057764                      
system.cpu2.dcache.tags.occ_task_id_blocks::1024           27                      
system.cpu2.dcache.tags.age_task_id_blocks_1024::0            1                      
system.cpu2.dcache.tags.age_task_id_blocks_1024::1           26                      
system.cpu2.dcache.tags.occ_task_id_percent::1024     0.052734                      
system.cpu2.dcache.tags.tag_accesses           239521                      
system.cpu2.dcache.tags.data_accesses          239521                      
system.cpu2.dcache.pwrStateResidencyTicks::UNDEFINED     87707000                      
system.cpu2.dcache.ReadReq_hits::cpu2.data        42635                      
system.cpu2.dcache.ReadReq_hits::total          42635                      
system.cpu2.dcache.WriteReq_hits::cpu2.data        16864                      
system.cpu2.dcache.WriteReq_hits::total         16864                      
system.cpu2.dcache.SwapReq_hits::cpu2.data           12                      
system.cpu2.dcache.SwapReq_hits::total             12                      
system.cpu2.dcache.demand_hits::cpu2.data        59499                      
system.cpu2.dcache.demand_hits::total           59499                      
system.cpu2.dcache.overall_hits::cpu2.data        59499                      
system.cpu2.dcache.overall_hits::total          59499                      
system.cpu2.dcache.ReadReq_misses::cpu2.data          150                      
system.cpu2.dcache.ReadReq_misses::total          150                      
system.cpu2.dcache.WriteReq_misses::cpu2.data          105                      
system.cpu2.dcache.WriteReq_misses::total          105                      
system.cpu2.dcache.SwapReq_misses::cpu2.data           54                      
system.cpu2.dcache.SwapReq_misses::total           54                      
system.cpu2.dcache.demand_misses::cpu2.data          255                      
system.cpu2.dcache.demand_misses::total           255                      
system.cpu2.dcache.overall_misses::cpu2.data          255                      
system.cpu2.dcache.overall_misses::total          255                      
system.cpu2.dcache.ReadReq_accesses::cpu2.data        42785                      
system.cpu2.dcache.ReadReq_accesses::total        42785                      
system.cpu2.dcache.WriteReq_accesses::cpu2.data        16969                      
system.cpu2.dcache.WriteReq_accesses::total        16969                      
system.cpu2.dcache.SwapReq_accesses::cpu2.data           66                      
system.cpu2.dcache.SwapReq_accesses::total           66                      
system.cpu2.dcache.demand_accesses::cpu2.data        59754                      
system.cpu2.dcache.demand_accesses::total        59754                      
system.cpu2.dcache.overall_accesses::cpu2.data        59754                      
system.cpu2.dcache.overall_accesses::total        59754                      
system.cpu2.dcache.ReadReq_miss_rate::cpu2.data     0.003506                      
system.cpu2.dcache.ReadReq_miss_rate::total     0.003506                      
system.cpu2.dcache.WriteReq_miss_rate::cpu2.data     0.006188                      
system.cpu2.dcache.WriteReq_miss_rate::total     0.006188                      
system.cpu2.dcache.SwapReq_miss_rate::cpu2.data     0.818182                      
system.cpu2.dcache.SwapReq_miss_rate::total     0.818182                      
system.cpu2.dcache.demand_miss_rate::cpu2.data     0.004267                      
system.cpu2.dcache.demand_miss_rate::total     0.004267                      
system.cpu2.dcache.overall_miss_rate::cpu2.data     0.004267                      
system.cpu2.dcache.overall_miss_rate::total     0.004267                      
system.cpu2.dcache.blocked_cycles::no_mshrs            0                      
system.cpu2.dcache.blocked_cycles::no_targets            0                      
system.cpu2.dcache.blocked::no_mshrs                0                      
system.cpu2.dcache.blocked::no_targets              0                      
system.cpu2.dcache.avg_blocked_cycles::no_mshrs          nan                      
system.cpu2.dcache.avg_blocked_cycles::no_targets          nan                      
system.cpu2.icache.tags.pwrStateResidencyTicks::UNDEFINED     87707000                      
system.cpu2.icache.tags.replacements              278                      
system.cpu2.icache.tags.tagsinuse           74.781471                      
system.cpu2.icache.tags.total_refs             167009                      
system.cpu2.icache.tags.sampled_refs              358                      
system.cpu2.icache.tags.avg_refs           466.505587                      
system.cpu2.icache.tags.warmup_cycle                0                      
system.cpu2.icache.tags.occ_blocks::cpu2.inst    74.781471                      
system.cpu2.icache.tags.occ_percent::cpu2.inst     0.146058                      
system.cpu2.icache.tags.occ_percent::total     0.146058                      
system.cpu2.icache.tags.occ_task_id_blocks::1024           80                      
system.cpu2.icache.tags.age_task_id_blocks_1024::0            9                      
system.cpu2.icache.tags.age_task_id_blocks_1024::1           71                      
system.cpu2.icache.tags.occ_task_id_percent::1024     0.156250                      
system.cpu2.icache.tags.tag_accesses           167725                      
system.cpu2.icache.tags.data_accesses          167725                      
system.cpu2.icache.pwrStateResidencyTicks::UNDEFINED     87707000                      
system.cpu2.icache.ReadReq_hits::cpu2.inst       167009                      
system.cpu2.icache.ReadReq_hits::total         167009                      
system.cpu2.icache.demand_hits::cpu2.inst       167009                      
system.cpu2.icache.demand_hits::total          167009                      
system.cpu2.icache.overall_hits::cpu2.inst       167009                      
system.cpu2.icache.overall_hits::total         167009                      
system.cpu2.icache.ReadReq_misses::cpu2.inst          358                      
system.cpu2.icache.ReadReq_misses::total          358                      
system.cpu2.icache.demand_misses::cpu2.inst          358                      
system.cpu2.icache.demand_misses::total           358                      
system.cpu2.icache.overall_misses::cpu2.inst          358                      
system.cpu2.icache.overall_misses::total          358                      
system.cpu2.icache.ReadReq_accesses::cpu2.inst       167367                      
system.cpu2.icache.ReadReq_accesses::total       167367                      
system.cpu2.icache.demand_accesses::cpu2.inst       167367                      
system.cpu2.icache.demand_accesses::total       167367                      
system.cpu2.icache.overall_accesses::cpu2.inst       167367                      
system.cpu2.icache.overall_accesses::total       167367                      
system.cpu2.icache.ReadReq_miss_rate::cpu2.inst     0.002139                      
system.cpu2.icache.ReadReq_miss_rate::total     0.002139                      
system.cpu2.icache.demand_miss_rate::cpu2.inst     0.002139                      
system.cpu2.icache.demand_miss_rate::total     0.002139                      
system.cpu2.icache.overall_miss_rate::cpu2.inst     0.002139                      
system.cpu2.icache.overall_miss_rate::total     0.002139                      
system.cpu2.icache.blocked_cycles::no_mshrs            0                      
system.cpu2.icache.blocked_cycles::no_targets            0                      
system.cpu2.icache.blocked::no_mshrs                0                      
system.cpu2.icache.blocked::no_targets              0                      
system.cpu2.icache.avg_blocked_cycles::no_mshrs          nan                      
system.cpu2.icache.avg_blocked_cycles::no_targets          nan                      
system.cpu2.icache.writebacks::writebacks          278                      
system.cpu2.icache.writebacks::total              278                      
system.cpu3.pwrStateResidencyTicks::ON       87707000                      
system.cpu3.numCycles                          173297                      
system.cpu3.numWorkItemsStarted                     0                      
system.cpu3.numWorkItemsCompleted                   0                      
system.cpu3.committedInsts                     167272                      
system.cpu3.committedOps                       167272                      
system.cpu3.num_int_alu_accesses               113295                      
system.cpu3.num_fp_alu_accesses                     0                      
system.cpu3.num_func_calls                        633                      
system.cpu3.num_conditional_control_insts        30996                      
system.cpu3.num_int_insts                      113295                      
system.cpu3.num_fp_insts                            0                      
system.cpu3.num_int_register_reads             290503                      
system.cpu3.num_int_register_writes            109270                      
system.cpu3.num_fp_register_reads                   0                      
system.cpu3.num_fp_register_writes                  0                      
system.cpu3.num_mem_refs                        58510                      
system.cpu3.num_load_insts                      42344                      
system.cpu3.num_store_insts                     16166                      
system.cpu3.num_idle_cycles               7999.282495                      
system.cpu3.num_busy_cycles              165297.717505                      
system.cpu3.not_idle_fraction                0.953841                      
system.cpu3.idle_fraction                    0.046159                      
system.cpu3.Branches                            32639                      
system.cpu3.op_class::No_OpClass                23433     14.01%     14.01%
system.cpu3.op_class::IntAlu                    74851     44.74%     58.75%
system.cpu3.op_class::IntMult                       0      0.00%     58.75%
system.cpu3.op_class::IntDiv                        0      0.00%     58.75%
system.cpu3.op_class::FloatAdd                      0      0.00%     58.75%
system.cpu3.op_class::FloatCmp                      0      0.00%     58.75%
system.cpu3.op_class::FloatCvt                      0      0.00%     58.75%
system.cpu3.op_class::FloatMult                     0      0.00%     58.75%
system.cpu3.op_class::FloatMultAcc                  0      0.00%     58.75%
system.cpu3.op_class::FloatDiv                      0      0.00%     58.75%
system.cpu3.op_class::FloatMisc                     0      0.00%     58.75%
system.cpu3.op_class::FloatSqrt                     0      0.00%     58.75%
system.cpu3.op_class::SimdAdd                       0      0.00%     58.75%
system.cpu3.op_class::SimdAddAcc                    0      0.00%     58.75%
system.cpu3.op_class::SimdAlu                       0      0.00%     58.75%
system.cpu3.op_class::SimdCmp                       0      0.00%     58.75%
system.cpu3.op_class::SimdCvt                       0      0.00%     58.75%
system.cpu3.op_class::SimdMisc                      0      0.00%     58.75%
system.cpu3.op_class::SimdMult                      0      0.00%     58.75%
system.cpu3.op_class::SimdMultAcc                   0      0.00%     58.75%
system.cpu3.op_class::SimdShift                     0      0.00%     58.75%
system.cpu3.op_class::SimdShiftAcc                  0      0.00%     58.75%
system.cpu3.op_class::SimdSqrt                      0      0.00%     58.75%
system.cpu3.op_class::SimdFloatAdd                  0      0.00%     58.75%
system.cpu3.op_class::SimdFloatAlu                  0      0.00%     58.75%
system.cpu3.op_class::SimdFloatCmp                  0      0.00%     58.75%
system.cpu3.op_class::SimdFloatCvt                  0      0.00%     58.75%
system.cpu3.op_class::SimdFloatDiv                  0      0.00%     58.75%
system.cpu3.op_class::SimdFloatMisc                 0      0.00%     58.75%
system.cpu3.op_class::SimdFloatMult                 0      0.00%     58.75%
system.cpu3.op_class::SimdFloatMultAcc              0      0.00%     58.75%
system.cpu3.op_class::SimdFloatSqrt                 0      0.00%     58.75%
system.cpu3.op_class::MemRead                   52854     31.59%     90.34%
system.cpu3.op_class::MemWrite                  16166      9.66%    100.00%
system.cpu3.op_class::FloatMemRead                  0      0.00%    100.00%
system.cpu3.op_class::FloatMemWrite                 0      0.00%    100.00%
system.cpu3.op_class::IprAccess                     0      0.00%    100.00%
system.cpu3.op_class::InstPrefetch                  0      0.00%    100.00%
system.cpu3.op_class::total                    167304                      
system.cpu3.dcache.tags.pwrStateResidencyTicks::UNDEFINED     87707000                      
system.cpu3.dcache.tags.replacements                0                      
system.cpu3.dcache.tags.tagsinuse           28.848199                      
system.cpu3.dcache.tags.total_refs              33595                      
system.cpu3.dcache.tags.sampled_refs               26                      
system.cpu3.dcache.tags.avg_refs          1292.115385                      
system.cpu3.dcache.tags.warmup_cycle                0                      
system.cpu3.dcache.tags.occ_blocks::cpu3.data    28.848199                      
system.cpu3.dcache.tags.occ_percent::cpu3.data     0.056344                      
system.cpu3.dcache.tags.occ_percent::total     0.056344                      
system.cpu3.dcache.tags.occ_task_id_blocks::1024           26                      
system.cpu3.dcache.tags.age_task_id_blocks_1024::1           26                      
system.cpu3.dcache.tags.occ_task_id_percent::1024     0.050781                      
system.cpu3.dcache.tags.tag_accesses           234241                      
system.cpu3.dcache.tags.data_accesses          234241                      
system.cpu3.dcache.pwrStateResidencyTicks::UNDEFINED     87707000                      
system.cpu3.dcache.ReadReq_hits::cpu3.data        42185                      
system.cpu3.dcache.ReadReq_hits::total          42185                      
system.cpu3.dcache.WriteReq_hits::cpu3.data        15991                      
system.cpu3.dcache.WriteReq_hits::total         15991                      
system.cpu3.dcache.SwapReq_hits::cpu3.data           12                      
system.cpu3.dcache.SwapReq_hits::total             12                      
system.cpu3.dcache.demand_hits::cpu3.data        58176                      
system.cpu3.dcache.demand_hits::total           58176                      
system.cpu3.dcache.overall_hits::cpu3.data        58176                      
system.cpu3.dcache.overall_hits::total          58176                      
system.cpu3.dcache.ReadReq_misses::cpu3.data          151                      
system.cpu3.dcache.ReadReq_misses::total          151                      
system.cpu3.dcache.WriteReq_misses::cpu3.data          109                      
system.cpu3.dcache.WriteReq_misses::total          109                      
system.cpu3.dcache.SwapReq_misses::cpu3.data           52                      
system.cpu3.dcache.SwapReq_misses::total           52                      
system.cpu3.dcache.demand_misses::cpu3.data          260                      
system.cpu3.dcache.demand_misses::total           260                      
system.cpu3.dcache.overall_misses::cpu3.data          260                      
system.cpu3.dcache.overall_misses::total          260                      
system.cpu3.dcache.ReadReq_accesses::cpu3.data        42336                      
system.cpu3.dcache.ReadReq_accesses::total        42336                      
system.cpu3.dcache.WriteReq_accesses::cpu3.data        16100                      
system.cpu3.dcache.WriteReq_accesses::total        16100                      
system.cpu3.dcache.SwapReq_accesses::cpu3.data           64                      
system.cpu3.dcache.SwapReq_accesses::total           64                      
system.cpu3.dcache.demand_accesses::cpu3.data        58436                      
system.cpu3.dcache.demand_accesses::total        58436                      
system.cpu3.dcache.overall_accesses::cpu3.data        58436                      
system.cpu3.dcache.overall_accesses::total        58436                      
system.cpu3.dcache.ReadReq_miss_rate::cpu3.data     0.003567                      
system.cpu3.dcache.ReadReq_miss_rate::total     0.003567                      
system.cpu3.dcache.WriteReq_miss_rate::cpu3.data     0.006770                      
system.cpu3.dcache.WriteReq_miss_rate::total     0.006770                      
system.cpu3.dcache.SwapReq_miss_rate::cpu3.data     0.812500                      
system.cpu3.dcache.SwapReq_miss_rate::total     0.812500                      
system.cpu3.dcache.demand_miss_rate::cpu3.data     0.004449                      
system.cpu3.dcache.demand_miss_rate::total     0.004449                      
system.cpu3.dcache.overall_miss_rate::cpu3.data     0.004449                      
system.cpu3.dcache.overall_miss_rate::total     0.004449                      
system.cpu3.dcache.blocked_cycles::no_mshrs            0                      
system.cpu3.dcache.blocked_cycles::no_targets            0                      
system.cpu3.dcache.blocked::no_mshrs                0                      
system.cpu3.dcache.blocked::no_targets              0                      
system.cpu3.dcache.avg_blocked_cycles::no_mshrs          nan                      
system.cpu3.dcache.avg_blocked_cycles::no_targets          nan                      
system.cpu3.icache.tags.pwrStateResidencyTicks::UNDEFINED     87707000                      
system.cpu3.icache.tags.replacements              279                      
system.cpu3.icache.tags.tagsinuse           72.874953                      
system.cpu3.icache.tags.total_refs             166945                      
system.cpu3.icache.tags.sampled_refs              359                      
system.cpu3.icache.tags.avg_refs           465.027855                      
system.cpu3.icache.tags.warmup_cycle                0                      
system.cpu3.icache.tags.occ_blocks::cpu3.inst    72.874953                      
system.cpu3.icache.tags.occ_percent::cpu3.inst     0.142334                      
system.cpu3.icache.tags.occ_percent::total     0.142334                      
system.cpu3.icache.tags.occ_task_id_blocks::1024           80                      
system.cpu3.icache.tags.age_task_id_blocks_1024::0            9                      
system.cpu3.icache.tags.age_task_id_blocks_1024::1           71                      
system.cpu3.icache.tags.occ_task_id_percent::1024     0.156250                      
system.cpu3.icache.tags.tag_accesses           167663                      
system.cpu3.icache.tags.data_accesses          167663                      
system.cpu3.icache.pwrStateResidencyTicks::UNDEFINED     87707000                      
system.cpu3.icache.ReadReq_hits::cpu3.inst       166945                      
system.cpu3.icache.ReadReq_hits::total         166945                      
system.cpu3.icache.demand_hits::cpu3.inst       166945                      
system.cpu3.icache.demand_hits::total          166945                      
system.cpu3.icache.overall_hits::cpu3.inst       166945                      
system.cpu3.icache.overall_hits::total         166945                      
system.cpu3.icache.ReadReq_misses::cpu3.inst          359                      
system.cpu3.icache.ReadReq_misses::total          359                      
system.cpu3.icache.demand_misses::cpu3.inst          359                      
system.cpu3.icache.demand_misses::total           359                      
system.cpu3.icache.overall_misses::cpu3.inst          359                      
system.cpu3.icache.overall_misses::total          359                      
system.cpu3.icache.ReadReq_accesses::cpu3.inst       167304                      
system.cpu3.icache.ReadReq_accesses::total       167304                      
system.cpu3.icache.demand_accesses::cpu3.inst       167304                      
system.cpu3.icache.demand_accesses::total       167304                      
system.cpu3.icache.overall_accesses::cpu3.inst       167304                      
system.cpu3.icache.overall_accesses::total       167304                      
system.cpu3.icache.ReadReq_miss_rate::cpu3.inst     0.002146                      
system.cpu3.icache.ReadReq_miss_rate::total     0.002146                      
system.cpu3.icache.demand_miss_rate::cpu3.inst     0.002146                      
system.cpu3.icache.demand_miss_rate::total     0.002146                      
system.cpu3.icache.overall_miss_rate::cpu3.inst     0.002146                      
system.cpu3.icache.overall_miss_rate::total     0.002146                      
system.cpu3.icache.blocked_cycles::no_mshrs            0                      
system.cpu3.icache.blocked_cycles::no_targets            0                      
system.cpu3.icache.blocked::no_mshrs                0                      
system.cpu3.icache.blocked::no_targets              0                      
system.cpu3.icache.avg_blocked_cycles::no_mshrs          nan                      
system.cpu3.icache.avg_blocked_cycles::no_targets          nan                      
system.cpu3.icache.writebacks::writebacks          279                      
system.cpu3.icache.writebacks::total              279                      
system.l2c.tags.pwrStateResidencyTicks::UNDEFINED     87707000                      
system.l2c.tags.replacements                        0                      
system.l2c.tags.tagsinuse                  498.606697                      
system.l2c.tags.total_refs                       1799                      
system.l2c.tags.sampled_refs                      559                      
system.l2c.tags.avg_refs                     3.218247                      
system.l2c.tags.warmup_cycle                        0                      
system.l2c.tags.occ_blocks::cpu0.inst      239.426226                      
system.l2c.tags.occ_blocks::cpu0.data      153.517433                      
system.l2c.tags.occ_blocks::cpu1.inst       59.512205                      
system.l2c.tags.occ_blocks::cpu1.data       19.205787                      
system.l2c.tags.occ_blocks::cpu2.inst        1.942787                      
system.l2c.tags.occ_blocks::cpu2.data       12.182505                      
system.l2c.tags.occ_blocks::cpu3.inst        0.965459                      
system.l2c.tags.occ_blocks::cpu3.data       11.854293                      
system.l2c.tags.occ_percent::cpu0.inst       0.003653                      
system.l2c.tags.occ_percent::cpu0.data       0.002342                      
system.l2c.tags.occ_percent::cpu1.inst       0.000908                      
system.l2c.tags.occ_percent::cpu1.data       0.000293                      
system.l2c.tags.occ_percent::cpu2.inst       0.000030                      
system.l2c.tags.occ_percent::cpu2.data       0.000186                      
system.l2c.tags.occ_percent::cpu3.inst       0.000015                      
system.l2c.tags.occ_percent::cpu3.data       0.000181                      
system.l2c.tags.occ_percent::total           0.007608                      
system.l2c.tags.occ_task_id_blocks::1024          559                      
system.l2c.tags.age_task_id_blocks_1024::0           48                      
system.l2c.tags.age_task_id_blocks_1024::1          511                      
system.l2c.tags.occ_task_id_percent::1024     0.008530                      
system.l2c.tags.tag_accesses                    19423                      
system.l2c.tags.data_accesses                   19423                      
system.l2c.pwrStateResidencyTicks::UNDEFINED     87707000                      
system.l2c.WritebackDirty_hits::writebacks            1                      
system.l2c.WritebackDirty_hits::total               1                      
system.l2c.WritebackClean_hits::writebacks          495                      
system.l2c.WritebackClean_hits::total             495                      
system.l2c.UpgradeReq_hits::cpu0.data              30                      
system.l2c.UpgradeReq_hits::cpu1.data              16                      
system.l2c.UpgradeReq_hits::cpu2.data              17                      
system.l2c.UpgradeReq_hits::cpu3.data              19                      
system.l2c.UpgradeReq_hits::total                  82                      
system.l2c.ReadCleanReq_hits::cpu0.inst           185                      
system.l2c.ReadCleanReq_hits::cpu1.inst           296                      
system.l2c.ReadCleanReq_hits::cpu2.inst           355                      
system.l2c.ReadCleanReq_hits::cpu3.inst           358                      
system.l2c.ReadCleanReq_hits::total              1194                      
system.l2c.ReadSharedReq_hits::cpu0.data            5                      
system.l2c.ReadSharedReq_hits::cpu1.data            3                      
system.l2c.ReadSharedReq_hits::cpu2.data            9                      
system.l2c.ReadSharedReq_hits::cpu3.data            9                      
system.l2c.ReadSharedReq_hits::total               26                      
system.l2c.demand_hits::cpu0.inst                 185                      
system.l2c.demand_hits::cpu0.data                   5                      
system.l2c.demand_hits::cpu1.inst                 296                      
system.l2c.demand_hits::cpu1.data                   3                      
system.l2c.demand_hits::cpu2.inst                 355                      
system.l2c.demand_hits::cpu2.data                   9                      
system.l2c.demand_hits::cpu3.inst                 358                      
system.l2c.demand_hits::cpu3.data                   9                      
system.l2c.demand_hits::total                    1220                      
system.l2c.overall_hits::cpu0.inst                185                      
system.l2c.overall_hits::cpu0.data                  5                      
system.l2c.overall_hits::cpu1.inst                296                      
system.l2c.overall_hits::cpu1.data                  3                      
system.l2c.overall_hits::cpu2.inst                355                      
system.l2c.overall_hits::cpu2.data                  9                      
system.l2c.overall_hits::cpu3.inst                358                      
system.l2c.overall_hits::cpu3.data                  9                      
system.l2c.overall_hits::total                   1220                      
system.l2c.ReadExReq_misses::cpu0.data             99                      
system.l2c.ReadExReq_misses::cpu1.data             13                      
system.l2c.ReadExReq_misses::cpu2.data             12                      
system.l2c.ReadExReq_misses::cpu3.data             12                      
system.l2c.ReadExReq_misses::total                136                      
system.l2c.ReadCleanReq_misses::cpu0.inst          282                      
system.l2c.ReadCleanReq_misses::cpu1.inst           62                      
system.l2c.ReadCleanReq_misses::cpu2.inst            3                      
system.l2c.ReadCleanReq_misses::cpu3.inst            1                      
system.l2c.ReadCleanReq_misses::total             348                      
system.l2c.ReadSharedReq_misses::cpu0.data           66                      
system.l2c.ReadSharedReq_misses::cpu1.data            7                      
system.l2c.ReadSharedReq_misses::cpu2.data            1                      
system.l2c.ReadSharedReq_misses::cpu3.data            1                      
system.l2c.ReadSharedReq_misses::total             75                      
system.l2c.demand_misses::cpu0.inst               282                      
system.l2c.demand_misses::cpu0.data               165                      
system.l2c.demand_misses::cpu1.inst                62                      
system.l2c.demand_misses::cpu1.data                20                      
system.l2c.demand_misses::cpu2.inst                 3                      
system.l2c.demand_misses::cpu2.data                13                      
system.l2c.demand_misses::cpu3.inst                 1                      
system.l2c.demand_misses::cpu3.data                13                      
system.l2c.demand_misses::total                   559                      
system.l2c.overall_misses::cpu0.inst              282                      
system.l2c.overall_misses::cpu0.data              165                      
system.l2c.overall_misses::cpu1.inst               62                      
system.l2c.overall_misses::cpu1.data               20                      
system.l2c.overall_misses::cpu2.inst                3                      
system.l2c.overall_misses::cpu2.data               13                      
system.l2c.overall_misses::cpu3.inst                1                      
system.l2c.overall_misses::cpu3.data               13                      
system.l2c.overall_misses::total                  559                      
system.l2c.WritebackDirty_accesses::writebacks            1                      
system.l2c.WritebackDirty_accesses::total            1                      
system.l2c.WritebackClean_accesses::writebacks          495                      
system.l2c.WritebackClean_accesses::total          495                      
system.l2c.UpgradeReq_accesses::cpu0.data           30                      
system.l2c.UpgradeReq_accesses::cpu1.data           16                      
system.l2c.UpgradeReq_accesses::cpu2.data           17                      
system.l2c.UpgradeReq_accesses::cpu3.data           19                      
system.l2c.UpgradeReq_accesses::total              82                      
system.l2c.ReadExReq_accesses::cpu0.data           99                      
system.l2c.ReadExReq_accesses::cpu1.data           13                      
system.l2c.ReadExReq_accesses::cpu2.data           12                      
system.l2c.ReadExReq_accesses::cpu3.data           12                      
system.l2c.ReadExReq_accesses::total              136                      
system.l2c.ReadCleanReq_accesses::cpu0.inst          467                      
system.l2c.ReadCleanReq_accesses::cpu1.inst          358                      
system.l2c.ReadCleanReq_accesses::cpu2.inst          358                      
system.l2c.ReadCleanReq_accesses::cpu3.inst          359                      
system.l2c.ReadCleanReq_accesses::total          1542                      
system.l2c.ReadSharedReq_accesses::cpu0.data           71                      
system.l2c.ReadSharedReq_accesses::cpu1.data           10                      
system.l2c.ReadSharedReq_accesses::cpu2.data           10                      
system.l2c.ReadSharedReq_accesses::cpu3.data           10                      
system.l2c.ReadSharedReq_accesses::total          101                      
system.l2c.demand_accesses::cpu0.inst             467                      
system.l2c.demand_accesses::cpu0.data             170                      
system.l2c.demand_accesses::cpu1.inst             358                      
system.l2c.demand_accesses::cpu1.data              23                      
system.l2c.demand_accesses::cpu2.inst             358                      
system.l2c.demand_accesses::cpu2.data              22                      
system.l2c.demand_accesses::cpu3.inst             359                      
system.l2c.demand_accesses::cpu3.data              22                      
system.l2c.demand_accesses::total                1779                      
system.l2c.overall_accesses::cpu0.inst            467                      
system.l2c.overall_accesses::cpu0.data            170                      
system.l2c.overall_accesses::cpu1.inst            358                      
system.l2c.overall_accesses::cpu1.data             23                      
system.l2c.overall_accesses::cpu2.inst            358                      
system.l2c.overall_accesses::cpu2.data             22                      
system.l2c.overall_accesses::cpu3.inst            359                      
system.l2c.overall_accesses::cpu3.data             22                      
system.l2c.overall_accesses::total               1779                      
system.l2c.ReadExReq_miss_rate::cpu0.data            1                      
system.l2c.ReadExReq_miss_rate::cpu1.data            1                      
system.l2c.ReadExReq_miss_rate::cpu2.data            1                      
system.l2c.ReadExReq_miss_rate::cpu3.data            1                      
system.l2c.ReadExReq_miss_rate::total               1                      
system.l2c.ReadCleanReq_miss_rate::cpu0.inst     0.603854                      
system.l2c.ReadCleanReq_miss_rate::cpu1.inst     0.173184                      
system.l2c.ReadCleanReq_miss_rate::cpu2.inst     0.008380                      
system.l2c.ReadCleanReq_miss_rate::cpu3.inst     0.002786                      
system.l2c.ReadCleanReq_miss_rate::total     0.225681                      
system.l2c.ReadSharedReq_miss_rate::cpu0.data     0.929577                      
system.l2c.ReadSharedReq_miss_rate::cpu1.data     0.700000                      
system.l2c.ReadSharedReq_miss_rate::cpu2.data     0.100000                      
system.l2c.ReadSharedReq_miss_rate::cpu3.data     0.100000                      
system.l2c.ReadSharedReq_miss_rate::total     0.742574                      
system.l2c.demand_miss_rate::cpu0.inst       0.603854                      
system.l2c.demand_miss_rate::cpu0.data       0.970588                      
system.l2c.demand_miss_rate::cpu1.inst       0.173184                      
system.l2c.demand_miss_rate::cpu1.data       0.869565                      
system.l2c.demand_miss_rate::cpu2.inst       0.008380                      
system.l2c.demand_miss_rate::cpu2.data       0.590909                      
system.l2c.demand_miss_rate::cpu3.inst       0.002786                      
system.l2c.demand_miss_rate::cpu3.data       0.590909                      
system.l2c.demand_miss_rate::total           0.314221                      
system.l2c.overall_miss_rate::cpu0.inst      0.603854                      
system.l2c.overall_miss_rate::cpu0.data      0.970588                      
system.l2c.overall_miss_rate::cpu1.inst      0.173184                      
system.l2c.overall_miss_rate::cpu1.data      0.869565                      
system.l2c.overall_miss_rate::cpu2.inst      0.008380                      
system.l2c.overall_miss_rate::cpu2.data      0.590909                      
system.l2c.overall_miss_rate::cpu3.inst      0.002786                      
system.l2c.overall_miss_rate::cpu3.data      0.590909                      
system.l2c.overall_miss_rate::total          0.314221                      
system.l2c.blocked_cycles::no_mshrs                 0                      
system.l2c.blocked_cycles::no_targets               0                      
system.l2c.blocked::no_mshrs                        0                      
system.l2c.blocked::no_targets                      0                      
system.l2c.avg_blocked_cycles::no_mshrs           nan                      
system.l2c.avg_blocked_cycles::no_targets          nan                      
system.membus.snoop_filter.tot_requests           799                      
system.membus.snoop_filter.hit_single_requests          240                      
system.membus.snoop_filter.hit_multi_requests            0                      
system.membus.snoop_filter.tot_snoops               0                      
system.membus.snoop_filter.hit_single_snoops            0                      
system.membus.snoop_filter.hit_multi_snoops            0                      
system.membus.pwrStateResidencyTicks::UNDEFINED     87707000                      
system.membus.trans_dist::ReadResp                423                      
system.membus.trans_dist::UpgradeReq              193                      
system.membus.trans_dist::ReadExReq               183                      
system.membus.trans_dist::ReadExResp              136                      
system.membus.trans_dist::ReadSharedReq           423                      
system.membus.pkt_count_system.l2c.mem_side::system.physmem.port         1358                      
system.membus.pkt_count::total                   1358                      
system.membus.pkt_size_system.l2c.mem_side::system.physmem.port        35776                      
system.membus.pkt_size::total                   35776                      
system.membus.snoops                                0                      
system.membus.snoopTraffic                          0                      
system.membus.snoop_fanout::samples               799                      
system.membus.snoop_fanout::mean                    0                      
system.membus.snoop_fanout::stdev                   0                      
system.membus.snoop_fanout::underflows              0      0.00%      0.00%
system.membus.snoop_fanout::0                     799    100.00%    100.00%
system.membus.snoop_fanout::1                       0      0.00%    100.00%
system.membus.snoop_fanout::overflows               0      0.00%    100.00%
system.membus.snoop_fanout::min_value               0                      
system.membus.snoop_fanout::max_value               0                      
system.membus.snoop_fanout::total                 799                      
system.toL2Bus.snoop_filter.tot_requests         3918                      
system.toL2Bus.snoop_filter.hit_single_requests         1142                      
system.toL2Bus.snoop_filter.hit_multi_requests         1788                      
system.toL2Bus.snoop_filter.tot_snoops              0                      
system.toL2Bus.snoop_filter.hit_single_snoops            0                      
system.toL2Bus.snoop_filter.hit_multi_snoops            0                      
system.toL2Bus.pwrStateResidencyTicks::UNDEFINED     87707000                      
system.toL2Bus.trans_dist::ReadResp              2179                      
system.toL2Bus.trans_dist::WritebackDirty            1                      
system.toL2Bus.trans_dist::WritebackClean         1050                      
system.toL2Bus.trans_dist::CleanEvict               1                      
system.toL2Bus.trans_dist::UpgradeReq             275                      
system.toL2Bus.trans_dist::UpgradeResp            275                      
system.toL2Bus.trans_dist::ReadExReq              412                      
system.toL2Bus.trans_dist::ReadExResp             412                      
system.toL2Bus.trans_dist::ReadCleanReq          1542                      
system.toL2Bus.trans_dist::ReadSharedReq          637                      
system.toL2Bus.pkt_count_system.cpu0.icache.mem_side::system.l2c.cpu_side         1149                      
system.toL2Bus.pkt_count_system.cpu0.dcache.mem_side::system.l2c.cpu_side          712                      
system.toL2Bus.pkt_count_system.cpu1.icache.mem_side::system.l2c.cpu_side          994                      
system.toL2Bus.pkt_count_system.cpu1.dcache.mem_side::system.l2c.cpu_side          696                      
system.toL2Bus.pkt_count_system.cpu2.icache.mem_side::system.l2c.cpu_side          994                      
system.toL2Bus.pkt_count_system.cpu2.dcache.mem_side::system.l2c.cpu_side          618                      
system.toL2Bus.pkt_count_system.cpu3.icache.mem_side::system.l2c.cpu_side          997                      
system.toL2Bus.pkt_count_system.cpu3.dcache.mem_side::system.l2c.cpu_side          624                      
system.toL2Bus.pkt_count::total                  6784                      
system.toL2Bus.pkt_size_system.cpu0.icache.mem_side::system.l2c.cpu_side        43648                      
system.toL2Bus.pkt_size_system.cpu0.dcache.mem_side::system.l2c.cpu_side        18752                      
system.toL2Bus.pkt_size_system.cpu1.icache.mem_side::system.l2c.cpu_side        40704                      
system.toL2Bus.pkt_size_system.cpu1.dcache.mem_side::system.l2c.cpu_side        17600                      
system.toL2Bus.pkt_size_system.cpu2.icache.mem_side::system.l2c.cpu_side        40704                      
system.toL2Bus.pkt_size_system.cpu2.dcache.mem_side::system.l2c.cpu_side        15424                      
system.toL2Bus.pkt_size_system.cpu3.icache.mem_side::system.l2c.cpu_side        40832                      
system.toL2Bus.pkt_size_system.cpu3.dcache.mem_side::system.l2c.cpu_side        15424                      
system.toL2Bus.pkt_size::total                 233088                      
system.toL2Bus.snoops                               0                      
system.toL2Bus.snoopTraffic                         0                      
system.toL2Bus.snoop_fanout::samples             3918                      
system.toL2Bus.snoop_fanout::mean            1.279735                      
system.toL2Bus.snoop_fanout::stdev           1.218885                      
system.toL2Bus.snoop_fanout::underflows             0      0.00%      0.00%
system.toL2Bus.snoop_fanout::0                   1485     37.90%     37.90%
system.toL2Bus.snoop_fanout::1                    882     22.51%     60.41%
system.toL2Bus.snoop_fanout::2                    521     13.30%     73.71%
system.toL2Bus.snoop_fanout::3                   1030     26.29%    100.00%
system.toL2Bus.snoop_fanout::4                      0      0.00%    100.00%
system.toL2Bus.snoop_fanout::5                      0      0.00%    100.00%
system.toL2Bus.snoop_fanout::6                      0      0.00%    100.00%
system.toL2Bus.snoop_fanout::7                      0      0.00%    100.00%
system.toL2Bus.snoop_fanout::8                      0      0.00%    100.00%
system.toL2Bus.snoop_fanout::overflows              0      0.00%    100.00%
system.toL2Bus.snoop_fanout::min_value              0                      
system.toL2Bus.snoop_fanout::max_value              3                      
system.toL2Bus.snoop_fanout::total               3918                      

---------- End Simulation Statistics   ----------
