Redirecting stdout to build/ARM/tests/opt/long/se/60.bzip2/arm/linux/o3-timing/simout
Redirecting stderr to build/ARM/tests/opt/long/se/60.bzip2/arm/linux/o3-timing/simerr
gem5 Simulator System.  http://gem5.org
gem5 is copyrighted software; use the --copyright option for details.

gem5 compiled Oct 11 2016 00:00:58
gem5 started Oct 13 2016 20:48:52
gem5 executing on e108600-lin, pid 17438
command line: /work/curdun01/gem5-external.hg/build/ARM/gem5.opt -d build/ARM/tests/opt/long/se/60.bzip2/arm/linux/o3-timing -re /work/curdun01/gem5-external.hg/tests/testing/../run.py long/se/60.bzip2/arm/linux/o3-timing

Global frequency set at 1000000000000 ticks per second
info: Entering event queue @ 0.  Starting simulation...
spec_init
Loading Input Data
Input data 1048576 bytes in length
Compressing Input Data, level 7
info: Increasing stack size by one page.
info: Increasing stack size by one page.
info: Increasing stack size by one page.
Compressed data 198546 bytes in length
Uncompressing Data
Uncompressed data 1048576 bytes in length
Uncompressed data compared correctly
Compressing Input Data, level 9
Compressed data 198677 bytes in length
Uncompressing Data
Uncompressed data 1048576 bytes in length
Uncompressed data compared correctly
Tested 1MB buffer: OK!
Exiting @ tick 787742202500 because target called exit()
