
---------- Begin Simulation Statistics ----------
sim_seconds                                  0.000022                      
sim_ticks                                    21876000                      
final_tick                                   21876000                      
sim_freq                                 1000000000000                      
host_inst_rate                                  17054                      
host_op_rate                                    17078                      
host_tick_rate                               67215440                      
host_mem_usage                                 279228                      
host_seconds                                     0.33                      
sim_insts                                        5550                      
sim_ops                                          5558                      
system.voltage_domain.voltage                       1                      
system.clk_domain.clock                          1000                      
system.physmem.pwrStateResidencyTicks::UNDEFINED     21876000                      
system.physmem.bytes_read::cpu.inst             25344                      
system.physmem.bytes_read::cpu.data              9856                      
system.physmem.bytes_read::total                35200                      
system.physmem.bytes_inst_read::cpu.inst        25344                      
system.physmem.bytes_inst_read::total           25344                      
system.physmem.num_reads::cpu.inst                396                      
system.physmem.num_reads::cpu.data                154                      
system.physmem.num_reads::total                   550                      
system.physmem.bw_read::cpu.inst           1158529896                      
system.physmem.bw_read::cpu.data            450539404                      
system.physmem.bw_read::total              1609069300                      
system.physmem.bw_inst_read::cpu.inst      1158529896                      
system.physmem.bw_inst_read::total         1158529896                      
system.physmem.bw_total::cpu.inst          1158529896                      
system.physmem.bw_total::cpu.data           450539404                      
system.physmem.bw_total::total             1609069300                      
system.physmem.readReqs                           550                      
system.physmem.writeReqs                            0                      
system.physmem.readBursts                         550                      
system.physmem.writeBursts                          0                      
system.physmem.bytesReadDRAM                    35200                      
system.physmem.bytesReadWrQ                         0                      
system.physmem.bytesWritten                         0                      
system.physmem.bytesReadSys                     35200                      
system.physmem.bytesWrittenSys                      0                      
system.physmem.servicedByWrQ                        0                      
system.physmem.mergedWrBursts                       0                      
system.physmem.neitherReadNorWriteReqs              0                      
system.physmem.perBankRdBursts::0                  59                      
system.physmem.perBankRdBursts::1                  84                      
system.physmem.perBankRdBursts::2                  53                      
system.physmem.perBankRdBursts::3                  46                      
system.physmem.perBankRdBursts::4                  34                      
system.physmem.perBankRdBursts::5                  35                      
system.physmem.perBankRdBursts::6                  43                      
system.physmem.perBankRdBursts::7                  24                      
system.physmem.perBankRdBursts::8                  33                      
system.physmem.perBankRdBursts::9                  29                      
system.physmem.perBankRdBursts::10                 23                      
system.physmem.perBankRdBursts::11                 18                      
system.physmem.perBankRdBursts::12                 51                      
system.physmem.perBankRdBursts::13                  5                      
system.physmem.perBankRdBursts::14                  6                      
system.physmem.perBankRdBursts::15                  7                      
system.physmem.perBankWrBursts::0                   0                      
system.physmem.perBankWrBursts::1                   0                      
system.physmem.perBankWrBursts::2                   0                      
system.physmem.perBankWrBursts::3                   0                      
system.physmem.perBankWrBursts::4                   0                      
system.physmem.perBankWrBursts::5                   0                      
system.physmem.perBankWrBursts::6                   0                      
system.physmem.perBankWrBursts::7                   0                      
system.physmem.perBankWrBursts::8                   0                      
system.physmem.perBankWrBursts::9                   0                      
system.physmem.perBankWrBursts::10                  0                      
system.physmem.perBankWrBursts::11                  0                      
system.physmem.perBankWrBursts::12                  0                      
system.physmem.perBankWrBursts::13                  0                      
system.physmem.perBankWrBursts::14                  0                      
system.physmem.perBankWrBursts::15                  0                      
system.physmem.numRdRetry                           0                      
system.physmem.numWrRetry                           0                      
system.physmem.totGap                        21770000                      
system.physmem.readPktSize::0                       0                      
system.physmem.readPktSize::1                       0                      
system.physmem.readPktSize::2                       0                      
system.physmem.readPktSize::3                       0                      
system.physmem.readPktSize::4                       0                      
system.physmem.readPktSize::5                       0                      
system.physmem.readPktSize::6                     550                      
system.physmem.writePktSize::0                      0                      
system.physmem.writePktSize::1                      0                      
system.physmem.writePktSize::2                      0                      
system.physmem.writePktSize::3                      0                      
system.physmem.writePktSize::4                      0                      
system.physmem.writePktSize::5                      0                      
system.physmem.writePktSize::6                      0                      
system.physmem.rdQLenPdf::0                       249                      
system.physmem.rdQLenPdf::1                       182                      
system.physmem.rdQLenPdf::2                        70                      
system.physmem.rdQLenPdf::3                        35                      
system.physmem.rdQLenPdf::4                        11                      
system.physmem.rdQLenPdf::5                         3                      
system.physmem.rdQLenPdf::6                         0                      
system.physmem.rdQLenPdf::7                         0                      
system.physmem.rdQLenPdf::8                         0                      
system.physmem.rdQLenPdf::9                         0                      
system.physmem.rdQLenPdf::10                        0                      
system.physmem.rdQLenPdf::11                        0                      
system.physmem.rdQLenPdf::12                        0                      
system.physmem.rdQLenPdf::13                        0                      
system.physmem.rdQLenPdf::14                        0                      
system.physmem.rdQLenPdf::15                        0                      
system.physmem.rdQLenPdf::16                        0                      
system.physmem.rdQLenPdf::17                        0                      
system.physmem.rdQLenPdf::18                        0                      
system.physmem.rdQLenPdf::19                        0                      
system.physmem.rdQLenPdf::20                        0                      
system.physmem.rdQLenPdf::21                        0                      
system.physmem.rdQLenPdf::22                        0                      
system.physmem.rdQLenPdf::23                        0                      
system.physmem.rdQLenPdf::24                        0                      
system.physmem.rdQLenPdf::25                        0                      
system.physmem.rdQLenPdf::26                        0                      
system.physmem.rdQLenPdf::27                        0                      
system.physmem.rdQLenPdf::28                        0                      
system.physmem.rdQLenPdf::29                        0                      
system.physmem.rdQLenPdf::30                        0                      
system.physmem.rdQLenPdf::31                        0                      
system.physmem.wrQLenPdf::0                         0                      
system.physmem.wrQLenPdf::1                         0                      
system.physmem.wrQLenPdf::2                         0                      
system.physmem.wrQLenPdf::3                         0                      
system.physmem.wrQLenPdf::4                         0                      
system.physmem.wrQLenPdf::5                         0                      
system.physmem.wrQLenPdf::6                         0                      
system.physmem.wrQLenPdf::7                         0                      
system.physmem.wrQLenPdf::8                         0                      
system.physmem.wrQLenPdf::9                         0                      
system.physmem.wrQLenPdf::10                        0                      
system.physmem.wrQLenPdf::11                        0                      
system.physmem.wrQLenPdf::12                        0                      
system.physmem.wrQLenPdf::13                        0                      
system.physmem.wrQLenPdf::14                        0                      
system.physmem.wrQLenPdf::15                        0                      
system.physmem.wrQLenPdf::16                        0                      
system.physmem.wrQLenPdf::17                        0                      
system.physmem.wrQLenPdf::18                        0                      
system.physmem.wrQLenPdf::19                        0                      
system.physmem.wrQLenPdf::20                        0                      
system.physmem.wrQLenPdf::21                        0                      
system.physmem.wrQLenPdf::22                        0                      
system.physmem.wrQLenPdf::23                        0                      
system.physmem.wrQLenPdf::24                        0                      
system.physmem.wrQLenPdf::25                        0                      
system.physmem.wrQLenPdf::26                        0                      
system.physmem.wrQLenPdf::27                        0                      
system.physmem.wrQLenPdf::28                        0                      
system.physmem.wrQLenPdf::29                        0                      
system.physmem.wrQLenPdf::30                        0                      
system.physmem.wrQLenPdf::31                        0                      
system.physmem.wrQLenPdf::32                        0                      
system.physmem.wrQLenPdf::33                        0                      
system.physmem.wrQLenPdf::34                        0                      
system.physmem.wrQLenPdf::35                        0                      
system.physmem.wrQLenPdf::36                        0                      
system.physmem.wrQLenPdf::37                        0                      
system.physmem.wrQLenPdf::38                        0                      
system.physmem.wrQLenPdf::39                        0                      
system.physmem.wrQLenPdf::40                        0                      
system.physmem.wrQLenPdf::41                        0                      
system.physmem.wrQLenPdf::42                        0                      
system.physmem.wrQLenPdf::43                        0                      
system.physmem.wrQLenPdf::44                        0                      
system.physmem.wrQLenPdf::45                        0                      
system.physmem.wrQLenPdf::46                        0                      
system.physmem.wrQLenPdf::47                        0                      
system.physmem.wrQLenPdf::48                        0                      
system.physmem.wrQLenPdf::49                        0                      
system.physmem.wrQLenPdf::50                        0                      
system.physmem.wrQLenPdf::51                        0                      
system.physmem.wrQLenPdf::52                        0                      
system.physmem.wrQLenPdf::53                        0                      
system.physmem.wrQLenPdf::54                        0                      
system.physmem.wrQLenPdf::55                        0                      
system.physmem.wrQLenPdf::56                        0                      
system.physmem.wrQLenPdf::57                        0                      
system.physmem.wrQLenPdf::58                        0                      
system.physmem.wrQLenPdf::59                        0                      
system.physmem.wrQLenPdf::60                        0                      
system.physmem.wrQLenPdf::61                        0                      
system.physmem.wrQLenPdf::62                        0                      
system.physmem.wrQLenPdf::63                        0                      
system.physmem.bytesPerActivate::samples           94                      
system.physmem.bytesPerActivate::mean      345.191489                      
system.physmem.bytesPerActivate::gmean     213.340807                      
system.physmem.bytesPerActivate::stdev     332.118818                      
system.physmem.bytesPerActivate::0-127             29     30.85%     30.85%
system.physmem.bytesPerActivate::128-255           21     22.34%     53.19%
system.physmem.bytesPerActivate::256-383           12     12.77%     65.96%
system.physmem.bytesPerActivate::384-511            7      7.45%     73.40%
system.physmem.bytesPerActivate::512-639            6      6.38%     79.79%
system.physmem.bytesPerActivate::640-767            4      4.26%     84.04%
system.physmem.bytesPerActivate::768-895            2      2.13%     86.17%
system.physmem.bytesPerActivate::1024-1151           13     13.83%    100.00%
system.physmem.bytesPerActivate::total             94                      
system.physmem.totQLat                        7873000                      
system.physmem.totMemAccLat                  18185500                      
system.physmem.totBusLat                      2750000                      
system.physmem.avgQLat                       14314.55                      
system.physmem.avgBusLat                      5000.00                      
system.physmem.avgMemAccLat                  33064.55                      
system.physmem.avgRdBW                        1609.07                      
system.physmem.avgWrBW                           0.00                      
system.physmem.avgRdBWSys                     1609.07                      
system.physmem.avgWrBWSys                        0.00                      
system.physmem.peakBW                        12800.00                      
system.physmem.busUtil                          12.57                      
system.physmem.busUtilRead                      12.57                      
system.physmem.busUtilWrite                      0.00                      
system.physmem.avgRdQLen                         2.14                      
system.physmem.avgWrQLen                         0.00                      
system.physmem.readRowHits                        445                      
system.physmem.writeRowHits                         0                      
system.physmem.readRowHitRate                   80.91                      
system.physmem.writeRowHitRate                    nan                      
system.physmem.avgGap                        39581.82                      
system.physmem.pageHitRate                      80.91                      
system.physmem_0.actEnergy                     564060                      
system.physmem_0.preEnergy                     273240                      
system.physmem_0.readEnergy                   2698920                      
system.physmem_0.writeEnergy                        0                      
system.physmem_0.refreshEnergy           1229280.000000                      
system.physmem_0.actBackEnergy                3964920                      
system.physmem_0.preBackEnergy                  25920                      
system.physmem_0.actPowerDownEnergy           5979870                      
system.physmem_0.prePowerDownEnergy                 0                      
system.physmem_0.selfRefreshEnergy                  0                      
system.physmem_0.totalEnergy                 14736210                      
system.physmem_0.averagePower              673.616822                      
system.physmem_0.totalIdleTime               13059500                      
system.physmem_0.memoryStateTime::IDLE          11500                      
system.physmem_0.memoryStateTime::REF          520000                      
system.physmem_0.memoryStateTime::SREF              0                      
system.physmem_0.memoryStateTime::PRE_PDN            0                      
system.physmem_0.memoryStateTime::ACT         8222000                      
system.physmem_0.memoryStateTime::ACT_PDN     13122500                      
system.physmem_1.actEnergy                     185640                      
system.physmem_1.preEnergy                      83490                      
system.physmem_1.readEnergy                   1228080                      
system.physmem_1.writeEnergy                        0                      
system.physmem_1.refreshEnergy           1229280.000000                      
system.physmem_1.actBackEnergy                2123820                      
system.physmem_1.preBackEnergy                 198720                      
system.physmem_1.actPowerDownEnergy           7360410                      
system.physmem_1.prePowerDownEnergy            215040                      
system.physmem_1.selfRefreshEnergy                  0                      
system.physmem_1.totalEnergy                 12624480                      
system.physmem_1.averagePower              577.086109                      
system.physmem_1.totalIdleTime               16628250                      
system.physmem_1.memoryStateTime::IDLE         448500                      
system.physmem_1.memoryStateTime::REF          520000                      
system.physmem_1.memoryStateTime::SREF              0                      
system.physmem_1.memoryStateTime::PRE_PDN       559250                      
system.physmem_1.memoryStateTime::ACT         4203750                      
system.physmem_1.memoryStateTime::ACT_PDN     16144500                      
system.pwrStateResidencyTicks::UNDEFINED     21876000                      
system.cpu.branchPred.lookups                    3602                      
system.cpu.branchPred.condPredicted              2403                      
system.cpu.branchPred.condIncorrect               615                      
system.cpu.branchPred.BTBLookups                 3064                      
system.cpu.branchPred.BTBHits                     820                      
system.cpu.branchPred.BTBCorrect                    0                      
system.cpu.branchPred.BTBHitPct             26.762402                      
system.cpu.branchPred.usedRAS                       0                      
system.cpu.branchPred.RASInCorrect                  0                      
system.cpu.branchPred.indirectLookups             552                      
system.cpu.branchPred.indirectHits                 26                      
system.cpu.branchPred.indirectMisses              526                      
system.cpu.branchPredindirectMispredicted          148                      
system.cpu_clk_domain.clock                       500                      
system.cpu.dtb.read_hits                            0                      
system.cpu.dtb.read_misses                          0                      
system.cpu.dtb.read_accesses                        0                      
system.cpu.dtb.write_hits                           0                      
system.cpu.dtb.write_misses                         0                      
system.cpu.dtb.write_accesses                       0                      
system.cpu.dtb.hits                                 0                      
system.cpu.dtb.misses                               0                      
system.cpu.dtb.accesses                             0                      
system.cpu.itb.read_hits                            0                      
system.cpu.itb.read_misses                          0                      
system.cpu.itb.read_accesses                        0                      
system.cpu.itb.write_hits                           0                      
system.cpu.itb.write_misses                         0                      
system.cpu.itb.write_accesses                       0                      
system.cpu.itb.hits                                 0                      
system.cpu.itb.misses                               0                      
system.cpu.itb.accesses                             0                      
system.cpu.workload.numSyscalls                     9                      
system.cpu.pwrStateResidencyTicks::ON        21876000                      
system.cpu.numCycles                            43754                      
system.cpu.numWorkItemsStarted                      0                      
system.cpu.numWorkItemsCompleted                    0                      
system.cpu.fetch.icacheStallCycles               9412                      
system.cpu.fetch.Insts                          15646                      
system.cpu.fetch.Branches                        3602                      
system.cpu.fetch.predictedBranches                846                      
system.cpu.fetch.Cycles                          4159                      
system.cpu.fetch.SquashCycles                    1256                      
system.cpu.fetch.MiscStallCycles                    8                      
system.cpu.fetch.IcacheWaitRetryStallCycles           99                      
system.cpu.fetch.CacheLines                      2183                      
system.cpu.fetch.IcacheSquashes                   446                      
system.cpu.fetch.rateDist::samples              14306                      
system.cpu.fetch.rateDist::mean              1.096323                      
system.cpu.fetch.rateDist::stdev             2.511814                      
system.cpu.fetch.rateDist::underflows               0      0.00%      0.00%
system.cpu.fetch.rateDist::0                    11573     80.90%     80.90%
system.cpu.fetch.rateDist::1                      217      1.52%     82.41%
system.cpu.fetch.rateDist::2                      240      1.68%     84.09%
system.cpu.fetch.rateDist::3                      172      1.20%     85.29%
system.cpu.fetch.rateDist::4                      322      2.25%     87.54%
system.cpu.fetch.rateDist::5                      235      1.64%     89.19%
system.cpu.fetch.rateDist::6                      104      0.73%     89.91%
system.cpu.fetch.rateDist::7                      160      1.12%     91.03%
system.cpu.fetch.rateDist::8                     1283      8.97%    100.00%
system.cpu.fetch.rateDist::overflows                0      0.00%    100.00%
system.cpu.fetch.rateDist::min_value                0                      
system.cpu.fetch.rateDist::max_value                8                      
system.cpu.fetch.rateDist::total                14306                      
system.cpu.fetch.branchRate                  0.082324                      
system.cpu.fetch.rate                        0.357590                      
system.cpu.decode.IdleCycles                     7306                      
system.cpu.decode.BlockedCycles                  4223                      
system.cpu.decode.RunCycles                      2169                      
system.cpu.decode.UnblockCycles                   153                      
system.cpu.decode.SquashCycles                    455                      
system.cpu.decode.BranchResolved                  898                      
system.cpu.decode.BranchMispred                   180                      
system.cpu.decode.DecodedInsts                  12831                      
system.cpu.decode.SquashedInsts                   509                      
system.cpu.rename.SquashCycles                    455                      
system.cpu.rename.IdleCycles                     7513                      
system.cpu.rename.BlockCycles                     808                      
system.cpu.rename.serializeStallCycles           2339                      
system.cpu.rename.RunCycles                      2094                      
system.cpu.rename.UnblockCycles                  1097                      
system.cpu.rename.RenamedInsts                  11937                      
system.cpu.rename.IQFullEvents                      8                      
system.cpu.rename.LQFullEvents                     48                      
system.cpu.rename.SQFullEvents                   1030                      
system.cpu.rename.RenamedOperands                8187                      
system.cpu.rename.RenameLookups                 15598                      
system.cpu.rename.int_rename_lookups            15586                      
system.cpu.rename.fp_rename_lookups                12                      
system.cpu.rename.CommittedMaps                  3562                      
system.cpu.rename.UndoneMaps                     4625                      
system.cpu.rename.serializingInsts                 43                      
system.cpu.rename.tempSerializingInsts             46                      
system.cpu.rename.skidInsts                       628                      
system.cpu.memDep0.insertedLoads                 2300                      
system.cpu.memDep0.insertedStores                1692                      
system.cpu.memDep0.conflictingLoads                27                      
system.cpu.memDep0.conflictingStores                6                      
system.cpu.iq.iqInstsAdded                      10454                      
system.cpu.iq.iqNonSpecInstsAdded                  57                      
system.cpu.iq.iqInstsIssued                      9212                      
system.cpu.iq.iqSquashedInstsIssued                89                      
system.cpu.iq.iqSquashedInstsExamined            4951                      
system.cpu.iq.iqSquashedOperandsExamined         2778                      
system.cpu.iq.iqSquashedNonSpecRemoved             30                      
system.cpu.iq.issued_per_cycle::samples         14306                      
system.cpu.iq.issued_per_cycle::mean         0.643926                      
system.cpu.iq.issued_per_cycle::stdev        1.508549                      
system.cpu.iq.issued_per_cycle::underflows            0      0.00%      0.00%
system.cpu.iq.issued_per_cycle::0               11171     78.09%     78.09%
system.cpu.iq.issued_per_cycle::1                 976      6.82%     84.91%
system.cpu.iq.issued_per_cycle::2                 626      4.38%     89.28%
system.cpu.iq.issued_per_cycle::3                 441      3.08%     92.37%
system.cpu.iq.issued_per_cycle::4                 429      3.00%     95.37%
system.cpu.iq.issued_per_cycle::5                 288      2.01%     97.38%
system.cpu.iq.issued_per_cycle::6                 199      1.39%     98.77%
system.cpu.iq.issued_per_cycle::7                  97      0.68%     99.45%
system.cpu.iq.issued_per_cycle::8                  79      0.55%    100.00%
system.cpu.iq.issued_per_cycle::overflows            0      0.00%    100.00%
system.cpu.iq.issued_per_cycle::min_value            0                      
system.cpu.iq.issued_per_cycle::max_value            8                      
system.cpu.iq.issued_per_cycle::total           14306                      
system.cpu.iq.fu_full::No_OpClass                   0      0.00%      0.00%
system.cpu.iq.fu_full::IntAlu                      41     13.58%     13.58%
system.cpu.iq.fu_full::IntMult                      0      0.00%     13.58%
system.cpu.iq.fu_full::IntDiv                       0      0.00%     13.58%
system.cpu.iq.fu_full::FloatAdd                     0      0.00%     13.58%
system.cpu.iq.fu_full::FloatCmp                     0      0.00%     13.58%
system.cpu.iq.fu_full::FloatCvt                     0      0.00%     13.58%
system.cpu.iq.fu_full::FloatMult                    0      0.00%     13.58%
system.cpu.iq.fu_full::FloatMultAcc                 0      0.00%     13.58%
system.cpu.iq.fu_full::FloatDiv                     0      0.00%     13.58%
system.cpu.iq.fu_full::FloatMisc                    0      0.00%     13.58%
system.cpu.iq.fu_full::FloatSqrt                    0      0.00%     13.58%
system.cpu.iq.fu_full::SimdAdd                      0      0.00%     13.58%
system.cpu.iq.fu_full::SimdAddAcc                   0      0.00%     13.58%
system.cpu.iq.fu_full::SimdAlu                      0      0.00%     13.58%
system.cpu.iq.fu_full::SimdCmp                      0      0.00%     13.58%
system.cpu.iq.fu_full::SimdCvt                      0      0.00%     13.58%
system.cpu.iq.fu_full::SimdMisc                     0      0.00%     13.58%
system.cpu.iq.fu_full::SimdMult                     0      0.00%     13.58%
system.cpu.iq.fu_full::SimdMultAcc                  0      0.00%     13.58%
system.cpu.iq.fu_full::SimdShift                    0      0.00%     13.58%
system.cpu.iq.fu_full::SimdShiftAcc                 0      0.00%     13.58%
system.cpu.iq.fu_full::SimdSqrt                     0      0.00%     13.58%
system.cpu.iq.fu_full::SimdFloatAdd                 0      0.00%     13.58%
system.cpu.iq.fu_full::SimdFloatAlu                 0      0.00%     13.58%
system.cpu.iq.fu_full::SimdFloatCmp                 0      0.00%     13.58%
system.cpu.iq.fu_full::SimdFloatCvt                 0      0.00%     13.58%
system.cpu.iq.fu_full::SimdFloatDiv                 0      0.00%     13.58%
system.cpu.iq.fu_full::SimdFloatMisc                0      0.00%     13.58%
system.cpu.iq.fu_full::SimdFloatMult                0      0.00%     13.58%
system.cpu.iq.fu_full::SimdFloatMultAcc             0      0.00%     13.58%
system.cpu.iq.fu_full::SimdFloatSqrt                0      0.00%     13.58%
system.cpu.iq.fu_full::MemRead                    169     55.96%     69.54%
system.cpu.iq.fu_full::MemWrite                    89     29.47%     99.01%
system.cpu.iq.fu_full::FloatMemRead                 0      0.00%     99.01%
system.cpu.iq.fu_full::FloatMemWrite                3      0.99%    100.00%
system.cpu.iq.fu_full::IprAccess                    0      0.00%    100.00%
system.cpu.iq.fu_full::InstPrefetch                 0      0.00%    100.00%
system.cpu.iq.FU_type_0::No_OpClass                10      0.11%      0.11%
system.cpu.iq.FU_type_0::IntAlu                  5557     60.32%     60.43%
system.cpu.iq.FU_type_0::IntMult                    4      0.04%     60.48%
system.cpu.iq.FU_type_0::IntDiv                     8      0.09%     60.56%
system.cpu.iq.FU_type_0::FloatAdd                   0      0.00%     60.56%
system.cpu.iq.FU_type_0::FloatCmp                   0      0.00%     60.56%
system.cpu.iq.FU_type_0::FloatCvt                   0      0.00%     60.56%
system.cpu.iq.FU_type_0::FloatMult                  0      0.00%     60.56%
system.cpu.iq.FU_type_0::FloatMultAcc               0      0.00%     60.56%
system.cpu.iq.FU_type_0::FloatDiv                   0      0.00%     60.56%
system.cpu.iq.FU_type_0::FloatMisc                  0      0.00%     60.56%
system.cpu.iq.FU_type_0::FloatSqrt                  0      0.00%     60.56%
system.cpu.iq.FU_type_0::SimdAdd                    0      0.00%     60.56%
system.cpu.iq.FU_type_0::SimdAddAcc                 0      0.00%     60.56%
system.cpu.iq.FU_type_0::SimdAlu                    0      0.00%     60.56%
system.cpu.iq.FU_type_0::SimdCmp                    0      0.00%     60.56%
system.cpu.iq.FU_type_0::SimdCvt                    0      0.00%     60.56%
system.cpu.iq.FU_type_0::SimdMisc                   0      0.00%     60.56%
system.cpu.iq.FU_type_0::SimdMult                   0      0.00%     60.56%
system.cpu.iq.FU_type_0::SimdMultAcc                0      0.00%     60.56%
system.cpu.iq.FU_type_0::SimdShift                  0      0.00%     60.56%
system.cpu.iq.FU_type_0::SimdShiftAcc               0      0.00%     60.56%
system.cpu.iq.FU_type_0::SimdSqrt                   0      0.00%     60.56%
system.cpu.iq.FU_type_0::SimdFloatAdd               0      0.00%     60.56%
system.cpu.iq.FU_type_0::SimdFloatAlu               0      0.00%     60.56%
system.cpu.iq.FU_type_0::SimdFloatCmp               0      0.00%     60.56%
system.cpu.iq.FU_type_0::SimdFloatCvt               0      0.00%     60.56%
system.cpu.iq.FU_type_0::SimdFloatDiv               0      0.00%     60.56%
system.cpu.iq.FU_type_0::SimdFloatMisc              0      0.00%     60.56%
system.cpu.iq.FU_type_0::SimdFloatMult              0      0.00%     60.56%
system.cpu.iq.FU_type_0::SimdFloatMultAcc            0      0.00%     60.56%
system.cpu.iq.FU_type_0::SimdFloatSqrt              0      0.00%     60.56%
system.cpu.iq.FU_type_0::MemRead                 2130     23.12%     83.68%
system.cpu.iq.FU_type_0::MemWrite                1491     16.19%     99.87%
system.cpu.iq.FU_type_0::FloatMemRead               0      0.00%     99.87%
system.cpu.iq.FU_type_0::FloatMemWrite             12      0.13%    100.00%
system.cpu.iq.FU_type_0::IprAccess                  0      0.00%    100.00%
system.cpu.iq.FU_type_0::InstPrefetch               0      0.00%    100.00%
system.cpu.iq.FU_type_0::total                   9212                      
system.cpu.iq.rate                           0.210541                      
system.cpu.iq.fu_busy_cnt                         302                      
system.cpu.iq.fu_busy_rate                   0.032783                      
system.cpu.iq.int_inst_queue_reads              33094                      
system.cpu.iq.int_inst_queue_writes             15459                      
system.cpu.iq.int_inst_queue_wakeup_accesses         8123                      
system.cpu.iq.fp_inst_queue_reads                  27                      
system.cpu.iq.fp_inst_queue_writes                 12                      
system.cpu.iq.fp_inst_queue_wakeup_accesses           12                      
system.cpu.iq.int_alu_accesses                   9489                      
system.cpu.iq.fp_alu_accesses                      15                      
system.cpu.iew.lsq.thread0.forwLoads               88                      
system.cpu.iew.lsq.thread0.invAddrLoads             0                      
system.cpu.iew.lsq.thread0.squashedLoads         1199                      
system.cpu.iew.lsq.thread0.ignoredResponses            3                      
system.cpu.iew.lsq.thread0.memOrderViolation           10                      
system.cpu.iew.lsq.thread0.squashedStores          595                      
system.cpu.iew.lsq.thread0.invAddrSwpfs             0                      
system.cpu.iew.lsq.thread0.blockedLoads             0                      
system.cpu.iew.lsq.thread0.rescheduledLoads            1                      
system.cpu.iew.lsq.thread0.cacheBlocked            97                      
system.cpu.iew.iewIdleCycles                        0                      
system.cpu.iew.iewSquashCycles                    455                      
system.cpu.iew.iewBlockCycles                     618                      
system.cpu.iew.iewUnblockCycles                   202                      
system.cpu.iew.iewDispatchedInsts               10510                      
system.cpu.iew.iewDispSquashedInsts               196                      
system.cpu.iew.iewDispLoadInsts                  2300                      
system.cpu.iew.iewDispStoreInsts                 1692                      
system.cpu.iew.iewDispNonSpecInsts                 56                      
system.cpu.iew.iewIQFullEvents                      1                      
system.cpu.iew.iewLSQFullEvents                   203                      
system.cpu.iew.memOrderViolationEvents             10                      
system.cpu.iew.predictedTakenIncorrect             42                      
system.cpu.iew.predictedNotTakenIncorrect          495                      
system.cpu.iew.branchMispredicts                  537                      
system.cpu.iew.iewExecutedInsts                  8674                      
system.cpu.iew.iewExecLoadInsts                  1961                      
system.cpu.iew.iewExecSquashedInsts               538                      
system.cpu.iew.exec_swp                             0                      
system.cpu.iew.exec_nop                             0                      
system.cpu.iew.exec_refs                         3393                      
system.cpu.iew.exec_branches                     1884                      
system.cpu.iew.exec_stores                       1432                      
system.cpu.iew.exec_rate                     0.198245                      
system.cpu.iew.wb_sent                           8314                      
system.cpu.iew.wb_count                          8135                      
system.cpu.iew.wb_producers                      3137                      
system.cpu.iew.wb_consumers                      4620                      
system.cpu.iew.wb_rate                       0.185926                      
system.cpu.iew.wb_fanout                     0.679004                      
system.cpu.commit.commitSquashedInsts            4964                      
system.cpu.commit.commitNonSpecStalls              26                      
system.cpu.commit.branchMispredicts               442                      
system.cpu.commit.committed_per_cycle::samples        13342                      
system.cpu.commit.committed_per_cycle::mean     0.416579                      
system.cpu.commit.committed_per_cycle::stdev     1.298857                      
system.cpu.commit.committed_per_cycle::underflows            0      0.00%      0.00%
system.cpu.commit.committed_per_cycle::0        11360     85.14%     85.14%
system.cpu.commit.committed_per_cycle::1          763      5.72%     90.86%
system.cpu.commit.committed_per_cycle::2          416      3.12%     93.98%
system.cpu.commit.committed_per_cycle::3          229      1.72%     95.70%
system.cpu.commit.committed_per_cycle::4          224      1.68%     97.38%
system.cpu.commit.committed_per_cycle::5           92      0.69%     98.07%
system.cpu.commit.committed_per_cycle::6           49      0.37%     98.43%
system.cpu.commit.committed_per_cycle::7           46      0.34%     98.78%
system.cpu.commit.committed_per_cycle::8          163      1.22%    100.00%
system.cpu.commit.committed_per_cycle::overflows            0      0.00%    100.00%
system.cpu.commit.committed_per_cycle::min_value            0                      
system.cpu.commit.committed_per_cycle::max_value            8                      
system.cpu.commit.committed_per_cycle::total        13342                      
system.cpu.commit.committedInsts                 5550                      
system.cpu.commit.committedOps                   5558                      
system.cpu.commit.swp_count                         0                      
system.cpu.commit.refs                           2198                      
system.cpu.commit.loads                          1101                      
system.cpu.commit.membars                           1                      
system.cpu.commit.branches                       1205                      
system.cpu.commit.fp_insts                         12                      
system.cpu.commit.int_insts                      5557                      
system.cpu.commit.function_calls                  291                      
system.cpu.commit.op_class_0::No_OpClass            1      0.02%      0.02%
system.cpu.commit.op_class_0::IntAlu             3353     60.33%     60.35%
system.cpu.commit.op_class_0::IntMult               2      0.04%     60.38%
system.cpu.commit.op_class_0::IntDiv                4      0.07%     60.45%
system.cpu.commit.op_class_0::FloatAdd              0      0.00%     60.45%
system.cpu.commit.op_class_0::FloatCmp              0      0.00%     60.45%
system.cpu.commit.op_class_0::FloatCvt              0      0.00%     60.45%
system.cpu.commit.op_class_0::FloatMult             0      0.00%     60.45%
system.cpu.commit.op_class_0::FloatMultAcc            0      0.00%     60.45%
system.cpu.commit.op_class_0::FloatDiv              0      0.00%     60.45%
system.cpu.commit.op_class_0::FloatMisc             0      0.00%     60.45%
system.cpu.commit.op_class_0::FloatSqrt             0      0.00%     60.45%
system.cpu.commit.op_class_0::SimdAdd               0      0.00%     60.45%
system.cpu.commit.op_class_0::SimdAddAcc            0      0.00%     60.45%
system.cpu.commit.op_class_0::SimdAlu               0      0.00%     60.45%
system.cpu.commit.op_class_0::SimdCmp               0      0.00%     60.45%
system.cpu.commit.op_class_0::SimdCvt               0      0.00%     60.45%
system.cpu.commit.op_class_0::SimdMisc              0      0.00%     60.45%
system.cpu.commit.op_class_0::SimdMult              0      0.00%     60.45%
system.cpu.commit.op_class_0::SimdMultAcc            0      0.00%     60.45%
system.cpu.commit.op_class_0::SimdShift             0      0.00%     60.45%
system.cpu.commit.op_class_0::SimdShiftAcc            0      0.00%     60.45%
system.cpu.commit.op_class_0::SimdSqrt              0      0.00%     60.45%
system.cpu.commit.op_class_0::SimdFloatAdd            0      0.00%     60.45%
system.cpu.commit.op_class_0::SimdFloatAlu            0      0.00%     60.45%
system.cpu.commit.op_class_0::SimdFloatCmp            0      0.00%     60.45%
system.cpu.commit.op_class_0::SimdFloatCvt            0      0.00%     60.45%
system.cpu.commit.op_class_0::SimdFloatDiv            0      0.00%     60.45%
system.cpu.commit.op_class_0::SimdFloatMisc            0      0.00%     60.45%
system.cpu.commit.op_class_0::SimdFloatMult            0      0.00%     60.45%
system.cpu.commit.op_class_0::SimdFloatMultAcc            0      0.00%     60.45%
system.cpu.commit.op_class_0::SimdFloatSqrt            0      0.00%     60.45%
system.cpu.commit.op_class_0::MemRead            1101     19.81%     80.26%
system.cpu.commit.op_class_0::MemWrite           1085     19.52%     99.78%
system.cpu.commit.op_class_0::FloatMemRead            0      0.00%     99.78%
system.cpu.commit.op_class_0::FloatMemWrite           12      0.22%    100.00%
system.cpu.commit.op_class_0::IprAccess             0      0.00%    100.00%
system.cpu.commit.op_class_0::InstPrefetch            0      0.00%    100.00%
system.cpu.commit.op_class_0::total              5558                      
system.cpu.commit.bw_lim_events                   163                      
system.cpu.rob.rob_reads                        23597                      
system.cpu.rob.rob_writes                       22017                      
system.cpu.timesIdled                             220                      
system.cpu.idleCycles                           29448                      
system.cpu.committedInsts                        5550                      
system.cpu.committedOps                          5558                      
system.cpu.cpi                               7.883604                      
system.cpu.cpi_total                         7.883604                      
system.cpu.ipc                               0.126846                      
system.cpu.ipc_total                         0.126846                      
system.cpu.int_regfile_reads                    11245                      
system.cpu.int_regfile_writes                    5548                      
system.cpu.fp_regfile_reads                        12                      
system.cpu.dcache.tags.pwrStateResidencyTicks::UNDEFINED     21876000                      
system.cpu.dcache.tags.replacements                 0                      
system.cpu.dcache.tags.tagsinuse            93.567108                      
system.cpu.dcache.tags.total_refs                2320                      
system.cpu.dcache.tags.sampled_refs               154                      
system.cpu.dcache.tags.avg_refs             15.064935                      
system.cpu.dcache.tags.warmup_cycle                 0                      
system.cpu.dcache.tags.occ_blocks::cpu.data    93.567108                      
system.cpu.dcache.tags.occ_percent::cpu.data     0.022844                      
system.cpu.dcache.tags.occ_percent::total     0.022844                      
system.cpu.dcache.tags.occ_task_id_blocks::1024          154                      
system.cpu.dcache.tags.age_task_id_blocks_1024::0           45                      
system.cpu.dcache.tags.age_task_id_blocks_1024::1          109                      
system.cpu.dcache.tags.occ_task_id_percent::1024     0.037598                      
system.cpu.dcache.tags.tag_accesses              5834                      
system.cpu.dcache.tags.data_accesses             5834                      
system.cpu.dcache.pwrStateResidencyTicks::UNDEFINED     21876000                      
system.cpu.dcache.ReadReq_hits::cpu.data         1574                      
system.cpu.dcache.ReadReq_hits::total            1574                      
system.cpu.dcache.WriteReq_hits::cpu.data          728                      
system.cpu.dcache.WriteReq_hits::total            728                      
system.cpu.dcache.LoadLockedReq_hits::cpu.data           10                      
system.cpu.dcache.LoadLockedReq_hits::total           10                      
system.cpu.dcache.StoreCondReq_hits::cpu.data            8                      
system.cpu.dcache.StoreCondReq_hits::total            8                      
system.cpu.dcache.demand_hits::cpu.data          2302                      
system.cpu.dcache.demand_hits::total             2302                      
system.cpu.dcache.overall_hits::cpu.data         2302                      
system.cpu.dcache.overall_hits::total            2302                      
system.cpu.dcache.ReadReq_misses::cpu.data          157                      
system.cpu.dcache.ReadReq_misses::total           157                      
system.cpu.dcache.WriteReq_misses::cpu.data          361                      
system.cpu.dcache.WriteReq_misses::total          361                      
system.cpu.dcache.LoadLockedReq_misses::cpu.data            2                      
system.cpu.dcache.LoadLockedReq_misses::total            2                      
system.cpu.dcache.demand_misses::cpu.data          518                      
system.cpu.dcache.demand_misses::total            518                      
system.cpu.dcache.overall_misses::cpu.data          518                      
system.cpu.dcache.overall_misses::total           518                      
system.cpu.dcache.ReadReq_miss_latency::cpu.data     12359000                      
system.cpu.dcache.ReadReq_miss_latency::total     12359000                      
system.cpu.dcache.WriteReq_miss_latency::cpu.data     24989478                      
system.cpu.dcache.WriteReq_miss_latency::total     24989478                      
system.cpu.dcache.LoadLockedReq_miss_latency::cpu.data       214000                      
system.cpu.dcache.LoadLockedReq_miss_latency::total       214000                      
system.cpu.dcache.demand_miss_latency::cpu.data     37348478                      
system.cpu.dcache.demand_miss_latency::total     37348478                      
system.cpu.dcache.overall_miss_latency::cpu.data     37348478                      
system.cpu.dcache.overall_miss_latency::total     37348478                      
system.cpu.dcache.ReadReq_accesses::cpu.data         1731                      
system.cpu.dcache.ReadReq_accesses::total         1731                      
system.cpu.dcache.WriteReq_accesses::cpu.data         1089                      
system.cpu.dcache.WriteReq_accesses::total         1089                      
system.cpu.dcache.LoadLockedReq_accesses::cpu.data           12                      
system.cpu.dcache.LoadLockedReq_accesses::total           12                      
system.cpu.dcache.StoreCondReq_accesses::cpu.data            8                      
system.cpu.dcache.StoreCondReq_accesses::total            8                      
system.cpu.dcache.demand_accesses::cpu.data         2820                      
system.cpu.dcache.demand_accesses::total         2820                      
system.cpu.dcache.overall_accesses::cpu.data         2820                      
system.cpu.dcache.overall_accesses::total         2820                      
system.cpu.dcache.ReadReq_miss_rate::cpu.data     0.090699                      
system.cpu.dcache.ReadReq_miss_rate::total     0.090699                      
system.cpu.dcache.WriteReq_miss_rate::cpu.data     0.331497                      
system.cpu.dcache.WriteReq_miss_rate::total     0.331497                      
system.cpu.dcache.LoadLockedReq_miss_rate::cpu.data     0.166667                      
system.cpu.dcache.LoadLockedReq_miss_rate::total     0.166667                      
system.cpu.dcache.demand_miss_rate::cpu.data     0.183688                      
system.cpu.dcache.demand_miss_rate::total     0.183688                      
system.cpu.dcache.overall_miss_rate::cpu.data     0.183688                      
system.cpu.dcache.overall_miss_rate::total     0.183688                      
system.cpu.dcache.ReadReq_avg_miss_latency::cpu.data 78719.745223                      
system.cpu.dcache.ReadReq_avg_miss_latency::total 78719.745223                      
system.cpu.dcache.WriteReq_avg_miss_latency::cpu.data 69222.930748                      
system.cpu.dcache.WriteReq_avg_miss_latency::total 69222.930748                      
system.cpu.dcache.LoadLockedReq_avg_miss_latency::cpu.data       107000                      
system.cpu.dcache.LoadLockedReq_avg_miss_latency::total       107000                      
system.cpu.dcache.demand_avg_miss_latency::cpu.data 72101.308880                      
system.cpu.dcache.demand_avg_miss_latency::total 72101.308880                      
system.cpu.dcache.overall_avg_miss_latency::cpu.data 72101.308880                      
system.cpu.dcache.overall_avg_miss_latency::total 72101.308880                      
system.cpu.dcache.blocked_cycles::no_mshrs         1711                      
system.cpu.dcache.blocked_cycles::no_targets            0                      
system.cpu.dcache.blocked::no_mshrs                30                      
system.cpu.dcache.blocked::no_targets               0                      
system.cpu.dcache.avg_blocked_cycles::no_mshrs    57.033333                      
system.cpu.dcache.avg_blocked_cycles::no_targets          nan                      
system.cpu.dcache.ReadReq_mshr_hits::cpu.data           83                      
system.cpu.dcache.ReadReq_mshr_hits::total           83                      
system.cpu.dcache.WriteReq_mshr_hits::cpu.data          282                      
system.cpu.dcache.WriteReq_mshr_hits::total          282                      
system.cpu.dcache.demand_mshr_hits::cpu.data          365                      
system.cpu.dcache.demand_mshr_hits::total          365                      
system.cpu.dcache.overall_mshr_hits::cpu.data          365                      
system.cpu.dcache.overall_mshr_hits::total          365                      
system.cpu.dcache.ReadReq_mshr_misses::cpu.data           74                      
system.cpu.dcache.ReadReq_mshr_misses::total           74                      
system.cpu.dcache.WriteReq_mshr_misses::cpu.data           79                      
system.cpu.dcache.WriteReq_mshr_misses::total           79                      
system.cpu.dcache.LoadLockedReq_mshr_misses::cpu.data            2                      
system.cpu.dcache.LoadLockedReq_mshr_misses::total            2                      
system.cpu.dcache.demand_mshr_misses::cpu.data          153                      
system.cpu.dcache.demand_mshr_misses::total          153                      
system.cpu.dcache.overall_mshr_misses::cpu.data          153                      
system.cpu.dcache.overall_mshr_misses::total          153                      
system.cpu.dcache.ReadReq_mshr_miss_latency::cpu.data      6623500                      
system.cpu.dcache.ReadReq_mshr_miss_latency::total      6623500                      
system.cpu.dcache.WriteReq_mshr_miss_latency::cpu.data      6694999                      
system.cpu.dcache.WriteReq_mshr_miss_latency::total      6694999                      
system.cpu.dcache.LoadLockedReq_mshr_miss_latency::cpu.data       212000                      
system.cpu.dcache.LoadLockedReq_mshr_miss_latency::total       212000                      
system.cpu.dcache.demand_mshr_miss_latency::cpu.data     13318499                      
system.cpu.dcache.demand_mshr_miss_latency::total     13318499                      
system.cpu.dcache.overall_mshr_miss_latency::cpu.data     13318499                      
system.cpu.dcache.overall_mshr_miss_latency::total     13318499                      
system.cpu.dcache.ReadReq_mshr_miss_rate::cpu.data     0.042750                      
system.cpu.dcache.ReadReq_mshr_miss_rate::total     0.042750                      
system.cpu.dcache.WriteReq_mshr_miss_rate::cpu.data     0.072544                      
system.cpu.dcache.WriteReq_mshr_miss_rate::total     0.072544                      
system.cpu.dcache.LoadLockedReq_mshr_miss_rate::cpu.data     0.166667                      
system.cpu.dcache.LoadLockedReq_mshr_miss_rate::total     0.166667                      
system.cpu.dcache.demand_mshr_miss_rate::cpu.data     0.054255                      
system.cpu.dcache.demand_mshr_miss_rate::total     0.054255                      
system.cpu.dcache.overall_mshr_miss_rate::cpu.data     0.054255                      
system.cpu.dcache.overall_mshr_miss_rate::total     0.054255                      
system.cpu.dcache.ReadReq_avg_mshr_miss_latency::cpu.data 89506.756757                      
system.cpu.dcache.ReadReq_avg_mshr_miss_latency::total 89506.756757                      
system.cpu.dcache.WriteReq_avg_mshr_miss_latency::cpu.data 84746.822785                      
system.cpu.dcache.WriteReq_avg_mshr_miss_latency::total 84746.822785                      
system.cpu.dcache.LoadLockedReq_avg_mshr_miss_latency::cpu.data       106000                      
system.cpu.dcache.LoadLockedReq_avg_mshr_miss_latency::total       106000                      
system.cpu.dcache.demand_avg_mshr_miss_latency::cpu.data 87049.013072                      
system.cpu.dcache.demand_avg_mshr_miss_latency::total 87049.013072                      
system.cpu.dcache.overall_avg_mshr_miss_latency::cpu.data 87049.013072                      
system.cpu.dcache.overall_avg_mshr_miss_latency::total 87049.013072                      
system.cpu.icache.tags.pwrStateResidencyTicks::UNDEFINED     21876000                      
system.cpu.icache.tags.replacements                 0                      
system.cpu.icache.tags.tagsinuse           196.515894                      
system.cpu.icache.tags.total_refs                1647                      
system.cpu.icache.tags.sampled_refs               398                      
system.cpu.icache.tags.avg_refs              4.138191                      
system.cpu.icache.tags.warmup_cycle                 0                      
system.cpu.icache.tags.occ_blocks::cpu.inst   196.515894                      
system.cpu.icache.tags.occ_percent::cpu.inst     0.095955                      
system.cpu.icache.tags.occ_percent::total     0.095955                      
system.cpu.icache.tags.occ_task_id_blocks::1024          398                      
system.cpu.icache.tags.age_task_id_blocks_1024::0          185                      
system.cpu.icache.tags.age_task_id_blocks_1024::1          213                      
system.cpu.icache.tags.occ_task_id_percent::1024     0.194336                      
system.cpu.icache.tags.tag_accesses              4764                      
system.cpu.icache.tags.data_accesses             4764                      
system.cpu.icache.pwrStateResidencyTicks::UNDEFINED     21876000                      
system.cpu.icache.ReadReq_hits::cpu.inst         1647                      
system.cpu.icache.ReadReq_hits::total            1647                      
system.cpu.icache.demand_hits::cpu.inst          1647                      
system.cpu.icache.demand_hits::total             1647                      
system.cpu.icache.overall_hits::cpu.inst         1647                      
system.cpu.icache.overall_hits::total            1647                      
system.cpu.icache.ReadReq_misses::cpu.inst          536                      
system.cpu.icache.ReadReq_misses::total           536                      
system.cpu.icache.demand_misses::cpu.inst          536                      
system.cpu.icache.demand_misses::total            536                      
system.cpu.icache.overall_misses::cpu.inst          536                      
system.cpu.icache.overall_misses::total           536                      
system.cpu.icache.ReadReq_miss_latency::cpu.inst     42517999                      
system.cpu.icache.ReadReq_miss_latency::total     42517999                      
system.cpu.icache.demand_miss_latency::cpu.inst     42517999                      
system.cpu.icache.demand_miss_latency::total     42517999                      
system.cpu.icache.overall_miss_latency::cpu.inst     42517999                      
system.cpu.icache.overall_miss_latency::total     42517999                      
system.cpu.icache.ReadReq_accesses::cpu.inst         2183                      
system.cpu.icache.ReadReq_accesses::total         2183                      
system.cpu.icache.demand_accesses::cpu.inst         2183                      
system.cpu.icache.demand_accesses::total         2183                      
system.cpu.icache.overall_accesses::cpu.inst         2183                      
system.cpu.icache.overall_accesses::total         2183                      
system.cpu.icache.ReadReq_miss_rate::cpu.inst     0.245534                      
system.cpu.icache.ReadReq_miss_rate::total     0.245534                      
system.cpu.icache.demand_miss_rate::cpu.inst     0.245534                      
system.cpu.icache.demand_miss_rate::total     0.245534                      
system.cpu.icache.overall_miss_rate::cpu.inst     0.245534                      
system.cpu.icache.overall_miss_rate::total     0.245534                      
system.cpu.icache.ReadReq_avg_miss_latency::cpu.inst 79324.625000                      
system.cpu.icache.ReadReq_avg_miss_latency::total 79324.625000                      
system.cpu.icache.demand_avg_miss_latency::cpu.inst 79324.625000                      
system.cpu.icache.demand_avg_miss_latency::total 79324.625000                      
system.cpu.icache.overall_avg_miss_latency::cpu.inst 79324.625000                      
system.cpu.icache.overall_avg_miss_latency::total 79324.625000                      
system.cpu.icache.blocked_cycles::no_mshrs         1766                      
system.cpu.icache.blocked_cycles::no_targets            0                      
system.cpu.icache.blocked::no_mshrs                21                      
system.cpu.icache.blocked::no_targets               0                      
system.cpu.icache.avg_blocked_cycles::no_mshrs    84.095238                      
system.cpu.icache.avg_blocked_cycles::no_targets          nan                      
system.cpu.icache.ReadReq_mshr_hits::cpu.inst          137                      
system.cpu.icache.ReadReq_mshr_hits::total          137                      
system.cpu.icache.demand_mshr_hits::cpu.inst          137                      
system.cpu.icache.demand_mshr_hits::total          137                      
system.cpu.icache.overall_mshr_hits::cpu.inst          137                      
system.cpu.icache.overall_mshr_hits::total          137                      
system.cpu.icache.ReadReq_mshr_misses::cpu.inst          399                      
system.cpu.icache.ReadReq_mshr_misses::total          399                      
system.cpu.icache.demand_mshr_misses::cpu.inst          399                      
system.cpu.icache.demand_mshr_misses::total          399                      
system.cpu.icache.overall_mshr_misses::cpu.inst          399                      
system.cpu.icache.overall_mshr_misses::total          399                      
system.cpu.icache.ReadReq_mshr_miss_latency::cpu.inst     33666499                      
system.cpu.icache.ReadReq_mshr_miss_latency::total     33666499                      
system.cpu.icache.demand_mshr_miss_latency::cpu.inst     33666499                      
system.cpu.icache.demand_mshr_miss_latency::total     33666499                      
system.cpu.icache.overall_mshr_miss_latency::cpu.inst     33666499                      
system.cpu.icache.overall_mshr_miss_latency::total     33666499                      
system.cpu.icache.ReadReq_mshr_miss_rate::cpu.inst     0.182776                      
system.cpu.icache.ReadReq_mshr_miss_rate::total     0.182776                      
system.cpu.icache.demand_mshr_miss_rate::cpu.inst     0.182776                      
system.cpu.icache.demand_mshr_miss_rate::total     0.182776                      
system.cpu.icache.overall_mshr_miss_rate::cpu.inst     0.182776                      
system.cpu.icache.overall_mshr_miss_rate::total     0.182776                      
system.cpu.icache.ReadReq_avg_mshr_miss_latency::cpu.inst 84377.190476                      
system.cpu.icache.ReadReq_avg_mshr_miss_latency::total 84377.190476                      
system.cpu.icache.demand_avg_mshr_miss_latency::cpu.inst 84377.190476                      
system.cpu.icache.demand_avg_mshr_miss_latency::total 84377.190476                      
system.cpu.icache.overall_avg_mshr_miss_latency::cpu.inst 84377.190476                      
system.cpu.icache.overall_avg_mshr_miss_latency::total 84377.190476                      
system.cpu.l2cache.tags.pwrStateResidencyTicks::UNDEFINED     21876000                      
system.cpu.l2cache.tags.replacements                0                      
system.cpu.l2cache.tags.tagsinuse          290.116029                      
system.cpu.l2cache.tags.total_refs                  2                      
system.cpu.l2cache.tags.sampled_refs              550                      
system.cpu.l2cache.tags.avg_refs             0.003636                      
system.cpu.l2cache.tags.warmup_cycle                0                      
system.cpu.l2cache.tags.occ_blocks::cpu.inst   196.475005                      
system.cpu.l2cache.tags.occ_blocks::cpu.data    93.641025                      
system.cpu.l2cache.tags.occ_percent::cpu.inst     0.005996                      
system.cpu.l2cache.tags.occ_percent::cpu.data     0.002858                      
system.cpu.l2cache.tags.occ_percent::total     0.008854                      
system.cpu.l2cache.tags.occ_task_id_blocks::1024          550                      
system.cpu.l2cache.tags.age_task_id_blocks_1024::0          228                      
system.cpu.l2cache.tags.age_task_id_blocks_1024::1          322                      
system.cpu.l2cache.tags.occ_task_id_percent::1024     0.016785                      
system.cpu.l2cache.tags.tag_accesses             4982                      
system.cpu.l2cache.tags.data_accesses            4982                      
system.cpu.l2cache.pwrStateResidencyTicks::UNDEFINED     21876000                      
system.cpu.l2cache.ReadCleanReq_hits::cpu.inst            2                      
system.cpu.l2cache.ReadCleanReq_hits::total            2                      
system.cpu.l2cache.demand_hits::cpu.inst            2                      
system.cpu.l2cache.demand_hits::total               2                      
system.cpu.l2cache.overall_hits::cpu.inst            2                      
system.cpu.l2cache.overall_hits::total              2                      
system.cpu.l2cache.ReadExReq_misses::cpu.data           79                      
system.cpu.l2cache.ReadExReq_misses::total           79                      
system.cpu.l2cache.ReadCleanReq_misses::cpu.inst          397                      
system.cpu.l2cache.ReadCleanReq_misses::total          397                      
system.cpu.l2cache.ReadSharedReq_misses::cpu.data           76                      
system.cpu.l2cache.ReadSharedReq_misses::total           76                      
system.cpu.l2cache.demand_misses::cpu.inst          397                      
system.cpu.l2cache.demand_misses::cpu.data          155                      
system.cpu.l2cache.demand_misses::total           552                      
system.cpu.l2cache.overall_misses::cpu.inst          397                      
system.cpu.l2cache.overall_misses::cpu.data          155                      
system.cpu.l2cache.overall_misses::total          552                      
system.cpu.l2cache.ReadExReq_miss_latency::cpu.data      6571500                      
system.cpu.l2cache.ReadExReq_miss_latency::total      6571500                      
system.cpu.l2cache.ReadCleanReq_miss_latency::cpu.inst     33045000                      
system.cpu.l2cache.ReadCleanReq_miss_latency::total     33045000                      
system.cpu.l2cache.ReadSharedReq_miss_latency::cpu.data      6720500                      
system.cpu.l2cache.ReadSharedReq_miss_latency::total      6720500                      
system.cpu.l2cache.demand_miss_latency::cpu.inst     33045000                      
system.cpu.l2cache.demand_miss_latency::cpu.data     13292000                      
system.cpu.l2cache.demand_miss_latency::total     46337000                      
system.cpu.l2cache.overall_miss_latency::cpu.inst     33045000                      
system.cpu.l2cache.overall_miss_latency::cpu.data     13292000                      
system.cpu.l2cache.overall_miss_latency::total     46337000                      
system.cpu.l2cache.ReadExReq_accesses::cpu.data           79                      
system.cpu.l2cache.ReadExReq_accesses::total           79                      
system.cpu.l2cache.ReadCleanReq_accesses::cpu.inst          399                      
system.cpu.l2cache.ReadCleanReq_accesses::total          399                      
system.cpu.l2cache.ReadSharedReq_accesses::cpu.data           76                      
system.cpu.l2cache.ReadSharedReq_accesses::total           76                      
system.cpu.l2cache.demand_accesses::cpu.inst          399                      
system.cpu.l2cache.demand_accesses::cpu.data          155                      
system.cpu.l2cache.demand_accesses::total          554                      
system.cpu.l2cache.overall_accesses::cpu.inst          399                      
system.cpu.l2cache.overall_accesses::cpu.data          155                      
system.cpu.l2cache.overall_accesses::total          554                      
system.cpu.l2cache.ReadExReq_miss_rate::cpu.data            1                      
system.cpu.l2cache.ReadExReq_miss_rate::total            1                      
system.cpu.l2cache.ReadCleanReq_miss_rate::cpu.inst     0.994987                      
system.cpu.l2cache.ReadCleanReq_miss_rate::total     0.994987                      
system.cpu.l2cache.ReadSharedReq_miss_rate::cpu.data            1                      
system.cpu.l2cache.ReadSharedReq_miss_rate::total            1                      
system.cpu.l2cache.demand_miss_rate::cpu.inst     0.994987                      
system.cpu.l2cache.demand_miss_rate::cpu.data            1                      
system.cpu.l2cache.demand_miss_rate::total     0.996390                      
system.cpu.l2cache.overall_miss_rate::cpu.inst     0.994987                      
system.cpu.l2cache.overall_miss_rate::cpu.data            1                      
system.cpu.l2cache.overall_miss_rate::total     0.996390                      
system.cpu.l2cache.ReadExReq_avg_miss_latency::cpu.data 83183.544304                      
system.cpu.l2cache.ReadExReq_avg_miss_latency::total 83183.544304                      
system.cpu.l2cache.ReadCleanReq_avg_miss_latency::cpu.inst 83236.775819                      
system.cpu.l2cache.ReadCleanReq_avg_miss_latency::total 83236.775819                      
system.cpu.l2cache.ReadSharedReq_avg_miss_latency::cpu.data 88427.631579                      
system.cpu.l2cache.ReadSharedReq_avg_miss_latency::total 88427.631579                      
system.cpu.l2cache.demand_avg_miss_latency::cpu.inst 83236.775819                      
system.cpu.l2cache.demand_avg_miss_latency::cpu.data 85754.838710                      
system.cpu.l2cache.demand_avg_miss_latency::total 83943.840580                      
system.cpu.l2cache.overall_avg_miss_latency::cpu.inst 83236.775819                      
system.cpu.l2cache.overall_avg_miss_latency::cpu.data 85754.838710                      
system.cpu.l2cache.overall_avg_miss_latency::total 83943.840580                      
system.cpu.l2cache.blocked_cycles::no_mshrs            0                      
system.cpu.l2cache.blocked_cycles::no_targets            0                      
system.cpu.l2cache.blocked::no_mshrs                0                      
system.cpu.l2cache.blocked::no_targets              0                      
system.cpu.l2cache.avg_blocked_cycles::no_mshrs          nan                      
system.cpu.l2cache.avg_blocked_cycles::no_targets          nan                      
system.cpu.l2cache.ReadExReq_mshr_misses::cpu.data           79                      
system.cpu.l2cache.ReadExReq_mshr_misses::total           79                      
system.cpu.l2cache.ReadCleanReq_mshr_misses::cpu.inst          397                      
system.cpu.l2cache.ReadCleanReq_mshr_misses::total          397                      
system.cpu.l2cache.ReadSharedReq_mshr_misses::cpu.data           76                      
system.cpu.l2cache.ReadSharedReq_mshr_misses::total           76                      
system.cpu.l2cache.demand_mshr_misses::cpu.inst          397                      
system.cpu.l2cache.demand_mshr_misses::cpu.data          155                      
system.cpu.l2cache.demand_mshr_misses::total          552                      
system.cpu.l2cache.overall_mshr_misses::cpu.inst          397                      
system.cpu.l2cache.overall_mshr_misses::cpu.data          155                      
system.cpu.l2cache.overall_mshr_misses::total          552                      
system.cpu.l2cache.ReadExReq_mshr_miss_latency::cpu.data      5781500                      
system.cpu.l2cache.ReadExReq_mshr_miss_latency::total      5781500                      
system.cpu.l2cache.ReadCleanReq_mshr_miss_latency::cpu.inst     29085000                      
system.cpu.l2cache.ReadCleanReq_mshr_miss_latency::total     29085000                      
system.cpu.l2cache.ReadSharedReq_mshr_miss_latency::cpu.data      5970500                      
system.cpu.l2cache.ReadSharedReq_mshr_miss_latency::total      5970500                      
system.cpu.l2cache.demand_mshr_miss_latency::cpu.inst     29085000                      
system.cpu.l2cache.demand_mshr_miss_latency::cpu.data     11752000                      
system.cpu.l2cache.demand_mshr_miss_latency::total     40837000                      
system.cpu.l2cache.overall_mshr_miss_latency::cpu.inst     29085000                      
system.cpu.l2cache.overall_mshr_miss_latency::cpu.data     11752000                      
system.cpu.l2cache.overall_mshr_miss_latency::total     40837000                      
system.cpu.l2cache.ReadExReq_mshr_miss_rate::cpu.data            1                      
system.cpu.l2cache.ReadExReq_mshr_miss_rate::total            1                      
system.cpu.l2cache.ReadCleanReq_mshr_miss_rate::cpu.inst     0.994987                      
system.cpu.l2cache.ReadCleanReq_mshr_miss_rate::total     0.994987                      
system.cpu.l2cache.ReadSharedReq_mshr_miss_rate::cpu.data            1                      
system.cpu.l2cache.ReadSharedReq_mshr_miss_rate::total            1                      
system.cpu.l2cache.demand_mshr_miss_rate::cpu.inst     0.994987                      
system.cpu.l2cache.demand_mshr_miss_rate::cpu.data            1                      
system.cpu.l2cache.demand_mshr_miss_rate::total     0.996390                      
system.cpu.l2cache.overall_mshr_miss_rate::cpu.inst     0.994987                      
system.cpu.l2cache.overall_mshr_miss_rate::cpu.data            1                      
system.cpu.l2cache.overall_mshr_miss_rate::total     0.996390                      
system.cpu.l2cache.ReadExReq_avg_mshr_miss_latency::cpu.data 73183.544304                      
system.cpu.l2cache.ReadExReq_avg_mshr_miss_latency::total 73183.544304                      
system.cpu.l2cache.ReadCleanReq_avg_mshr_miss_latency::cpu.inst 73261.964736                      
system.cpu.l2cache.ReadCleanReq_avg_mshr_miss_latency::total 73261.964736                      
system.cpu.l2cache.ReadSharedReq_avg_mshr_miss_latency::cpu.data 78559.210526                      
system.cpu.l2cache.ReadSharedReq_avg_mshr_miss_latency::total 78559.210526                      
system.cpu.l2cache.demand_avg_mshr_miss_latency::cpu.inst 73261.964736                      
system.cpu.l2cache.demand_avg_mshr_miss_latency::cpu.data 75819.354839                      
system.cpu.l2cache.demand_avg_mshr_miss_latency::total 73980.072464                      
system.cpu.l2cache.overall_avg_mshr_miss_latency::cpu.inst 73261.964736                      
system.cpu.l2cache.overall_avg_mshr_miss_latency::cpu.data 75819.354839                      
system.cpu.l2cache.overall_avg_mshr_miss_latency::total 73980.072464                      
system.cpu.toL2Bus.snoop_filter.tot_requests          554                      
system.cpu.toL2Bus.snoop_filter.hit_single_requests            2                      
system.cpu.toL2Bus.snoop_filter.hit_multi_requests            0                      
system.cpu.toL2Bus.snoop_filter.tot_snoops            0                      
system.cpu.toL2Bus.snoop_filter.hit_single_snoops            0                      
system.cpu.toL2Bus.snoop_filter.hit_multi_snoops            0                      
system.cpu.toL2Bus.pwrStateResidencyTicks::UNDEFINED     21876000                      
system.cpu.toL2Bus.trans_dist::ReadResp           473                      
system.cpu.toL2Bus.trans_dist::ReadExReq           79                      
system.cpu.toL2Bus.trans_dist::ReadExResp           79                      
system.cpu.toL2Bus.trans_dist::ReadCleanReq          399                      
system.cpu.toL2Bus.trans_dist::ReadSharedReq           76                      
system.cpu.toL2Bus.pkt_count_system.cpu.icache.mem_side::system.cpu.l2cache.cpu_side          797                      
system.cpu.toL2Bus.pkt_count_system.cpu.dcache.mem_side::system.cpu.l2cache.cpu_side          309                      
system.cpu.toL2Bus.pkt_count::total              1106                      
system.cpu.toL2Bus.pkt_size_system.cpu.icache.mem_side::system.cpu.l2cache.cpu_side        25472                      
system.cpu.toL2Bus.pkt_size_system.cpu.dcache.mem_side::system.cpu.l2cache.cpu_side         9856                      
system.cpu.toL2Bus.pkt_size::total              35328                      
system.cpu.toL2Bus.snoops                           0                      
system.cpu.toL2Bus.snoopTraffic                     0                      
system.cpu.toL2Bus.snoop_fanout::samples          554                      
system.cpu.toL2Bus.snoop_fanout::mean        0.003610                      
system.cpu.toL2Bus.snoop_fanout::stdev       0.060030                      
system.cpu.toL2Bus.snoop_fanout::underflows            0      0.00%      0.00%
system.cpu.toL2Bus.snoop_fanout::0                552     99.64%     99.64%
system.cpu.toL2Bus.snoop_fanout::1                  2      0.36%    100.00%
system.cpu.toL2Bus.snoop_fanout::2                  0      0.00%    100.00%
system.cpu.toL2Bus.snoop_fanout::overflows            0      0.00%    100.00%
system.cpu.toL2Bus.snoop_fanout::min_value            0                      
system.cpu.toL2Bus.snoop_fanout::max_value            1                      
system.cpu.toL2Bus.snoop_fanout::total            554                      
system.cpu.toL2Bus.reqLayer0.occupancy         277000                      
system.cpu.toL2Bus.reqLayer0.utilization          1.3                      
system.cpu.toL2Bus.respLayer0.occupancy        597000                      
system.cpu.toL2Bus.respLayer0.utilization          2.7                      
system.cpu.toL2Bus.respLayer1.occupancy        231000                      
system.cpu.toL2Bus.respLayer1.utilization          1.1                      
system.membus.snoop_filter.tot_requests           550                      
system.membus.snoop_filter.hit_single_requests            0                      
system.membus.snoop_filter.hit_multi_requests            0                      
system.membus.snoop_filter.tot_snoops               0                      
system.membus.snoop_filter.hit_single_snoops            0                      
system.membus.snoop_filter.hit_multi_snoops            0                      
system.membus.pwrStateResidencyTicks::UNDEFINED     21876000                      
system.membus.trans_dist::ReadResp                471                      
system.membus.trans_dist::ReadExReq                79                      
system.membus.trans_dist::ReadExResp               79                      
system.membus.trans_dist::ReadSharedReq           471                      
system.membus.pkt_count_system.cpu.l2cache.mem_side::system.physmem.port         1100                      
system.membus.pkt_count::total                   1100                      
system.membus.pkt_size_system.cpu.l2cache.mem_side::system.physmem.port        35200                      
system.membus.pkt_size::total                   35200                      
system.membus.snoops                                0                      
system.membus.snoopTraffic                          0                      
system.membus.snoop_fanout::samples               550                      
system.membus.snoop_fanout::mean                    0                      
system.membus.snoop_fanout::stdev                   0                      
system.membus.snoop_fanout::underflows              0      0.00%      0.00%
system.membus.snoop_fanout::0                     550    100.00%    100.00%
system.membus.snoop_fanout::1                       0      0.00%    100.00%
system.membus.snoop_fanout::overflows               0      0.00%    100.00%
system.membus.snoop_fanout::min_value               0                      
system.membus.snoop_fanout::max_value               0                      
system.membus.snoop_fanout::total                 550                      
system.membus.reqLayer0.occupancy              681000                      
system.membus.reqLayer0.utilization               3.1                      
system.membus.respLayer1.occupancy            2898500                      
system.membus.respLayer1.utilization             13.2                      

---------- End Simulation Statistics   ----------
