
---------- Begin Simulation Statistics ----------
sim_seconds                                  5.305855                       # Number of seconds simulated
sim_ticks                                5305855051000                       # Number of ticks simulated
final_tick                               5305855051000                       # Number of ticks from beginning of simulation (restored from checkpoints and never reset)
sim_freq                                 1000000000000                       # Frequency of simulated ticks
host_inst_rate                                 186796                       # Simulator instruction rate (inst/s)
host_op_rate                                   357991                       # Simulator op (including micro ops) rate (op/s)
host_tick_rate                             9246678170                       # Simulator tick rate (ticks/s)
host_mem_usage                                1105624                       # Number of bytes of host memory used
host_seconds                                   573.81                       # Real time elapsed on the host
sim_insts                                   107186053                       # Number of instructions simulated
sim_ops                                     205419480                       # Number of ops (including micro ops) simulated
system.voltage_domain.voltage                       1                       # Voltage in Volts
system.clk_domain.clock                          1000                       # Clock period in ticks
system.mem_ctrls.bytes_read::ruby.dir_cntrl0     11371136                       # Number of bytes read from this memory
system.mem_ctrls.bytes_read::total           11371136                       # Number of bytes read from this memory
system.mem_ctrls.bytes_written::ruby.dir_cntrl0      9131456                       # Number of bytes written to this memory
system.mem_ctrls.bytes_written::total         9131456                       # Number of bytes written to this memory
system.mem_ctrls.num_reads::ruby.dir_cntrl0       177674                       # Number of read requests responded to by this memory
system.mem_ctrls.num_reads::total              177674                       # Number of read requests responded to by this memory
system.mem_ctrls.num_writes::ruby.dir_cntrl0       142679                       # Number of write requests responded to by this memory
system.mem_ctrls.num_writes::total             142679                       # Number of write requests responded to by this memory
system.mem_ctrls.bw_read::ruby.dir_cntrl0      2143130                       # Total read bandwidth from this memory (bytes/s)
system.mem_ctrls.bw_read::total               2143130                       # Total read bandwidth from this memory (bytes/s)
system.mem_ctrls.bw_write::ruby.dir_cntrl0      1721015                       # Write bandwidth from this memory (bytes/s)
system.mem_ctrls.bw_write::total              1721015                       # Write bandwidth from this memory (bytes/s)
system.mem_ctrls.bw_total::ruby.dir_cntrl0      3864145                       # Total bandwidth to/from this memory (bytes/s)
system.mem_ctrls.bw_total::total              3864145                       # Total bandwidth to/from this memory (bytes/s)
system.mem_ctrls.readReqs                      177674                       # Number of read requests accepted
system.mem_ctrls.writeReqs                     142679                       # Number of write requests accepted
system.mem_ctrls.readBursts                    177674                       # Number of DRAM read bursts, including those serviced by the write queue
system.mem_ctrls.writeBursts                   142679                       # Number of DRAM write bursts, including those merged in the write queue
system.mem_ctrls.bytesReadDRAM               11313280                       # Total number of bytes read from DRAM
system.mem_ctrls.bytesReadWrQ                   57856                       # Total number of bytes read from write queue
system.mem_ctrls.bytesWritten                 9121152                       # Total number of bytes written to DRAM
system.mem_ctrls.bytesReadSys                11371136                       # Total read bytes from the system interface side
system.mem_ctrls.bytesWrittenSys              9131456                       # Total written bytes from the system interface side
system.mem_ctrls.servicedByWrQ                    904                       # Number of DRAM read bursts serviced by the write queue
system.mem_ctrls.mergedWrBursts                   135                       # Number of DRAM write bursts merged with an existing one
system.mem_ctrls.neitherReadNorWriteReqs            0                       # Number of requests that are neither read nor write
system.mem_ctrls.perBankRdBursts::0             10805                       # Per bank write bursts
system.mem_ctrls.perBankRdBursts::1             10794                       # Per bank write bursts
system.mem_ctrls.perBankRdBursts::2             10981                       # Per bank write bursts
system.mem_ctrls.perBankRdBursts::3             11389                       # Per bank write bursts
system.mem_ctrls.perBankRdBursts::4             11550                       # Per bank write bursts
system.mem_ctrls.perBankRdBursts::5             12175                       # Per bank write bursts
system.mem_ctrls.perBankRdBursts::6             10978                       # Per bank write bursts
system.mem_ctrls.perBankRdBursts::7             10407                       # Per bank write bursts
system.mem_ctrls.perBankRdBursts::8             10706                       # Per bank write bursts
system.mem_ctrls.perBankRdBursts::9             10369                       # Per bank write bursts
system.mem_ctrls.perBankRdBursts::10            10514                       # Per bank write bursts
system.mem_ctrls.perBankRdBursts::11            13718                       # Per bank write bursts
system.mem_ctrls.perBankRdBursts::12            10819                       # Per bank write bursts
system.mem_ctrls.perBankRdBursts::13            10294                       # Per bank write bursts
system.mem_ctrls.perBankRdBursts::14            10714                       # Per bank write bursts
system.mem_ctrls.perBankRdBursts::15            10557                       # Per bank write bursts
system.mem_ctrls.perBankWrBursts::0              8779                       # Per bank write bursts
system.mem_ctrls.perBankWrBursts::1              8773                       # Per bank write bursts
system.mem_ctrls.perBankWrBursts::2              8745                       # Per bank write bursts
system.mem_ctrls.perBankWrBursts::3              9209                       # Per bank write bursts
system.mem_ctrls.perBankWrBursts::4              9395                       # Per bank write bursts
system.mem_ctrls.perBankWrBursts::5              9648                       # Per bank write bursts
system.mem_ctrls.perBankWrBursts::6              8754                       # Per bank write bursts
system.mem_ctrls.perBankWrBursts::7              8594                       # Per bank write bursts
system.mem_ctrls.perBankWrBursts::8              8776                       # Per bank write bursts
system.mem_ctrls.perBankWrBursts::9              8713                       # Per bank write bursts
system.mem_ctrls.perBankWrBursts::10             8651                       # Per bank write bursts
system.mem_ctrls.perBankWrBursts::11             9041                       # Per bank write bursts
system.mem_ctrls.perBankWrBursts::12             8739                       # Per bank write bursts
system.mem_ctrls.perBankWrBursts::13             8605                       # Per bank write bursts
system.mem_ctrls.perBankWrBursts::14             9111                       # Per bank write bursts
system.mem_ctrls.perBankWrBursts::15             8985                       # Per bank write bursts
system.mem_ctrls.numRdRetry                         0                       # Number of times read queue was full causing retry
system.mem_ctrls.numWrRetry                         0                       # Number of times write queue was full causing retry
system.mem_ctrls.totGap                  5305854916500                       # Total gap between requests
system.mem_ctrls.readPktSize::0                     0                       # Read request sizes (log2)
system.mem_ctrls.readPktSize::1                     0                       # Read request sizes (log2)
system.mem_ctrls.readPktSize::2                     0                       # Read request sizes (log2)
system.mem_ctrls.readPktSize::3                     0                       # Read request sizes (log2)
system.mem_ctrls.readPktSize::4                     0                       # Read request sizes (log2)
system.mem_ctrls.readPktSize::5                     0                       # Read request sizes (log2)
system.mem_ctrls.readPktSize::6                177674                       # Read request sizes (log2)
system.mem_ctrls.writePktSize::0                    0                       # Write request sizes (log2)
system.mem_ctrls.writePktSize::1                    0                       # Write request sizes (log2)
system.mem_ctrls.writePktSize::2                    0                       # Write request sizes (log2)
system.mem_ctrls.writePktSize::3                    0                       # Write request sizes (log2)
system.mem_ctrls.writePktSize::4                    0                       # Write request sizes (log2)
system.mem_ctrls.writePktSize::5                    0                       # Write request sizes (log2)
system.mem_ctrls.writePktSize::6               142679                       # Write request sizes (log2)
system.mem_ctrls.rdQLenPdf::0                  176703                       # What read queue length does an incoming req see
system.mem_ctrls.rdQLenPdf::1                      67                       # What read queue length does an incoming req see
system.mem_ctrls.rdQLenPdf::2                       0                       # What read queue length does an incoming req see
system.mem_ctrls.rdQLenPdf::3                       0                       # What read queue length does an incoming req see
system.mem_ctrls.rdQLenPdf::4                       0                       # What read queue length does an incoming req see
system.mem_ctrls.rdQLenPdf::5                       0                       # What read queue length does an incoming req see
system.mem_ctrls.rdQLenPdf::6                       0                       # What read queue length does an incoming req see
system.mem_ctrls.rdQLenPdf::7                       0                       # What read queue length does an incoming req see
system.mem_ctrls.rdQLenPdf::8                       0                       # What read queue length does an incoming req see
system.mem_ctrls.rdQLenPdf::9                       0                       # What read queue length does an incoming req see
system.mem_ctrls.rdQLenPdf::10                      0                       # What read queue length does an incoming req see
system.mem_ctrls.rdQLenPdf::11                      0                       # What read queue length does an incoming req see
system.mem_ctrls.rdQLenPdf::12                      0                       # What read queue length does an incoming req see
system.mem_ctrls.rdQLenPdf::13                      0                       # What read queue length does an incoming req see
system.mem_ctrls.rdQLenPdf::14                      0                       # What read queue length does an incoming req see
system.mem_ctrls.rdQLenPdf::15                      0                       # What read queue length does an incoming req see
system.mem_ctrls.rdQLenPdf::16                      0                       # What read queue length does an incoming req see
system.mem_ctrls.rdQLenPdf::17                      0                       # What read queue length does an incoming req see
system.mem_ctrls.rdQLenPdf::18                      0                       # What read queue length does an incoming req see
system.mem_ctrls.rdQLenPdf::19                      0                       # What read queue length does an incoming req see
system.mem_ctrls.rdQLenPdf::20                      0                       # What read queue length does an incoming req see
system.mem_ctrls.rdQLenPdf::21                      0                       # What read queue length does an incoming req see
system.mem_ctrls.rdQLenPdf::22                      0                       # What read queue length does an incoming req see
system.mem_ctrls.rdQLenPdf::23                      0                       # What read queue length does an incoming req see
system.mem_ctrls.rdQLenPdf::24                      0                       # What read queue length does an incoming req see
system.mem_ctrls.rdQLenPdf::25                      0                       # What read queue length does an incoming req see
system.mem_ctrls.rdQLenPdf::26                      0                       # What read queue length does an incoming req see
system.mem_ctrls.rdQLenPdf::27                      0                       # What read queue length does an incoming req see
system.mem_ctrls.rdQLenPdf::28                      0                       # What read queue length does an incoming req see
system.mem_ctrls.rdQLenPdf::29                      0                       # What read queue length does an incoming req see
system.mem_ctrls.rdQLenPdf::30                      0                       # What read queue length does an incoming req see
system.mem_ctrls.rdQLenPdf::31                      0                       # What read queue length does an incoming req see
system.mem_ctrls.wrQLenPdf::0                       1                       # What write queue length does an incoming req see
system.mem_ctrls.wrQLenPdf::1                       1                       # What write queue length does an incoming req see
system.mem_ctrls.wrQLenPdf::2                       1                       # What write queue length does an incoming req see
system.mem_ctrls.wrQLenPdf::3                       1                       # What write queue length does an incoming req see
system.mem_ctrls.wrQLenPdf::4                       1                       # What write queue length does an incoming req see
system.mem_ctrls.wrQLenPdf::5                       1                       # What write queue length does an incoming req see
system.mem_ctrls.wrQLenPdf::6                       1                       # What write queue length does an incoming req see
system.mem_ctrls.wrQLenPdf::7                       1                       # What write queue length does an incoming req see
system.mem_ctrls.wrQLenPdf::8                       1                       # What write queue length does an incoming req see
system.mem_ctrls.wrQLenPdf::9                       1                       # What write queue length does an incoming req see
system.mem_ctrls.wrQLenPdf::10                      1                       # What write queue length does an incoming req see
system.mem_ctrls.wrQLenPdf::11                      1                       # What write queue length does an incoming req see
system.mem_ctrls.wrQLenPdf::12                      1                       # What write queue length does an incoming req see
system.mem_ctrls.wrQLenPdf::13                      1                       # What write queue length does an incoming req see
system.mem_ctrls.wrQLenPdf::14                      1                       # What write queue length does an incoming req see
system.mem_ctrls.wrQLenPdf::15                   2059                       # What write queue length does an incoming req see
system.mem_ctrls.wrQLenPdf::16                   2790                       # What write queue length does an incoming req see
system.mem_ctrls.wrQLenPdf::17                   8563                       # What write queue length does an incoming req see
system.mem_ctrls.wrQLenPdf::18                   9122                       # What write queue length does an incoming req see
system.mem_ctrls.wrQLenPdf::19                   8572                       # What write queue length does an incoming req see
system.mem_ctrls.wrQLenPdf::20                   9212                       # What write queue length does an incoming req see
system.mem_ctrls.wrQLenPdf::21                   9228                       # What write queue length does an incoming req see
system.mem_ctrls.wrQLenPdf::22                   8314                       # What write queue length does an incoming req see
system.mem_ctrls.wrQLenPdf::23                   9034                       # What write queue length does an incoming req see
system.mem_ctrls.wrQLenPdf::24                   9060                       # What write queue length does an incoming req see
system.mem_ctrls.wrQLenPdf::25                   8413                       # What write queue length does an incoming req see
system.mem_ctrls.wrQLenPdf::26                   8500                       # What write queue length does an incoming req see
system.mem_ctrls.wrQLenPdf::27                   8357                       # What write queue length does an incoming req see
system.mem_ctrls.wrQLenPdf::28                   8453                       # What write queue length does an incoming req see
system.mem_ctrls.wrQLenPdf::29                   8029                       # What write queue length does an incoming req see
system.mem_ctrls.wrQLenPdf::30                   8097                       # What write queue length does an incoming req see
system.mem_ctrls.wrQLenPdf::31                   8147                       # What write queue length does an incoming req see
system.mem_ctrls.wrQLenPdf::32                   7952                       # What write queue length does an incoming req see
system.mem_ctrls.wrQLenPdf::33                    108                       # What write queue length does an incoming req see
system.mem_ctrls.wrQLenPdf::34                     85                       # What write queue length does an incoming req see
system.mem_ctrls.wrQLenPdf::35                     89                       # What write queue length does an incoming req see
system.mem_ctrls.wrQLenPdf::36                     75                       # What write queue length does an incoming req see
system.mem_ctrls.wrQLenPdf::37                     64                       # What write queue length does an incoming req see
system.mem_ctrls.wrQLenPdf::38                     57                       # What write queue length does an incoming req see
system.mem_ctrls.wrQLenPdf::39                     48                       # What write queue length does an incoming req see
system.mem_ctrls.wrQLenPdf::40                     39                       # What write queue length does an incoming req see
system.mem_ctrls.wrQLenPdf::41                     28                       # What write queue length does an incoming req see
system.mem_ctrls.wrQLenPdf::42                     18                       # What write queue length does an incoming req see
system.mem_ctrls.wrQLenPdf::43                      9                       # What write queue length does an incoming req see
system.mem_ctrls.wrQLenPdf::44                      4                       # What write queue length does an incoming req see
system.mem_ctrls.wrQLenPdf::45                      2                       # What write queue length does an incoming req see
system.mem_ctrls.wrQLenPdf::46                      1                       # What write queue length does an incoming req see
system.mem_ctrls.wrQLenPdf::47                      0                       # What write queue length does an incoming req see
system.mem_ctrls.wrQLenPdf::48                      0                       # What write queue length does an incoming req see
system.mem_ctrls.wrQLenPdf::49                      0                       # What write queue length does an incoming req see
system.mem_ctrls.wrQLenPdf::50                      0                       # What write queue length does an incoming req see
system.mem_ctrls.wrQLenPdf::51                      0                       # What write queue length does an incoming req see
system.mem_ctrls.wrQLenPdf::52                      0                       # What write queue length does an incoming req see
system.mem_ctrls.wrQLenPdf::53                      0                       # What write queue length does an incoming req see
system.mem_ctrls.wrQLenPdf::54                      0                       # What write queue length does an incoming req see
system.mem_ctrls.wrQLenPdf::55                      0                       # What write queue length does an incoming req see
system.mem_ctrls.wrQLenPdf::56                      0                       # What write queue length does an incoming req see
system.mem_ctrls.wrQLenPdf::57                      0                       # What write queue length does an incoming req see
system.mem_ctrls.wrQLenPdf::58                      0                       # What write queue length does an incoming req see
system.mem_ctrls.wrQLenPdf::59                      0                       # What write queue length does an incoming req see
system.mem_ctrls.wrQLenPdf::60                      0                       # What write queue length does an incoming req see
system.mem_ctrls.wrQLenPdf::61                      0                       # What write queue length does an incoming req see
system.mem_ctrls.wrQLenPdf::62                      0                       # What write queue length does an incoming req see
system.mem_ctrls.wrQLenPdf::63                      0                       # What write queue length does an incoming req see
system.mem_ctrls.bytesPerActivate::samples        60336                       # Bytes accessed per row activation
system.mem_ctrls.bytesPerActivate::mean    338.676213                       # Bytes accessed per row activation
system.mem_ctrls.bytesPerActivate::gmean   200.551275                       # Bytes accessed per row activation
system.mem_ctrls.bytesPerActivate::stdev   343.723517                       # Bytes accessed per row activation
system.mem_ctrls.bytesPerActivate::0-127        20068     33.26%     33.26% # Bytes accessed per row activation
system.mem_ctrls.bytesPerActivate::128-255        14736     24.42%     57.68% # Bytes accessed per row activation
system.mem_ctrls.bytesPerActivate::256-383         6373     10.56%     68.25% # Bytes accessed per row activation
system.mem_ctrls.bytesPerActivate::384-511         3491      5.79%     74.03% # Bytes accessed per row activation
system.mem_ctrls.bytesPerActivate::512-639         2657      4.40%     78.44% # Bytes accessed per row activation
system.mem_ctrls.bytesPerActivate::640-767         1861      3.08%     81.52% # Bytes accessed per row activation
system.mem_ctrls.bytesPerActivate::768-895         1364      2.26%     83.78% # Bytes accessed per row activation
system.mem_ctrls.bytesPerActivate::896-1023         1338      2.22%     86.00% # Bytes accessed per row activation
system.mem_ctrls.bytesPerActivate::1024-1151         8448     14.00%    100.00% # Bytes accessed per row activation
system.mem_ctrls.bytesPerActivate::total        60336                       # Bytes accessed per row activation
system.mem_ctrls.rdPerTurnAround::samples         7897                       # Reads before turning the bus around for writes
system.mem_ctrls.rdPerTurnAround::mean      22.382170                       # Reads before turning the bus around for writes
system.mem_ctrls.rdPerTurnAround::stdev    317.489285                       # Reads before turning the bus around for writes
system.mem_ctrls.rdPerTurnAround::0-1023         7891     99.92%     99.92% # Reads before turning the bus around for writes
system.mem_ctrls.rdPerTurnAround::1024-2047            3      0.04%     99.96% # Reads before turning the bus around for writes
system.mem_ctrls.rdPerTurnAround::2048-3071            1      0.01%     99.97% # Reads before turning the bus around for writes
system.mem_ctrls.rdPerTurnAround::10240-11263            1      0.01%     99.99% # Reads before turning the bus around for writes
system.mem_ctrls.rdPerTurnAround::25600-26623            1      0.01%    100.00% # Reads before turning the bus around for writes
system.mem_ctrls.rdPerTurnAround::total          7897                       # Reads before turning the bus around for writes
system.mem_ctrls.wrPerTurnAround::samples         7897                       # Writes before turning the bus around for reads
system.mem_ctrls.wrPerTurnAround::mean      18.047106                       # Writes before turning the bus around for reads
system.mem_ctrls.wrPerTurnAround::gmean     17.696875                       # Writes before turning the bus around for reads
system.mem_ctrls.wrPerTurnAround::stdev      4.065797                       # Writes before turning the bus around for reads
system.mem_ctrls.wrPerTurnAround::16             5800     73.45%     73.45% # Writes before turning the bus around for reads
system.mem_ctrls.wrPerTurnAround::17                9      0.11%     73.56% # Writes before turning the bus around for reads
system.mem_ctrls.wrPerTurnAround::18              169      2.14%     75.70% # Writes before turning the bus around for reads
system.mem_ctrls.wrPerTurnAround::19               20      0.25%     75.95% # Writes before turning the bus around for reads
system.mem_ctrls.wrPerTurnAround::20               37      0.47%     76.42% # Writes before turning the bus around for reads
system.mem_ctrls.wrPerTurnAround::21              500      6.33%     82.75% # Writes before turning the bus around for reads
system.mem_ctrls.wrPerTurnAround::22              145      1.84%     84.59% # Writes before turning the bus around for reads
system.mem_ctrls.wrPerTurnAround::23               43      0.54%     85.13% # Writes before turning the bus around for reads
system.mem_ctrls.wrPerTurnAround::24              653      8.27%     93.40% # Writes before turning the bus around for reads
system.mem_ctrls.wrPerTurnAround::25              111      1.41%     94.81% # Writes before turning the bus around for reads
system.mem_ctrls.wrPerTurnAround::26               12      0.15%     94.96% # Writes before turning the bus around for reads
system.mem_ctrls.wrPerTurnAround::27               19      0.24%     95.20% # Writes before turning the bus around for reads
system.mem_ctrls.wrPerTurnAround::28              304      3.85%     99.05% # Writes before turning the bus around for reads
system.mem_ctrls.wrPerTurnAround::29                7      0.09%     99.14% # Writes before turning the bus around for reads
system.mem_ctrls.wrPerTurnAround::30                3      0.04%     99.18% # Writes before turning the bus around for reads
system.mem_ctrls.wrPerTurnAround::31                6      0.08%     99.25% # Writes before turning the bus around for reads
system.mem_ctrls.wrPerTurnAround::32                6      0.08%     99.33% # Writes before turning the bus around for reads
system.mem_ctrls.wrPerTurnAround::33                2      0.03%     99.35% # Writes before turning the bus around for reads
system.mem_ctrls.wrPerTurnAround::34                1      0.01%     99.37% # Writes before turning the bus around for reads
system.mem_ctrls.wrPerTurnAround::35                3      0.04%     99.40% # Writes before turning the bus around for reads
system.mem_ctrls.wrPerTurnAround::37                1      0.01%     99.42% # Writes before turning the bus around for reads
system.mem_ctrls.wrPerTurnAround::38                3      0.04%     99.46% # Writes before turning the bus around for reads
system.mem_ctrls.wrPerTurnAround::39                7      0.09%     99.54% # Writes before turning the bus around for reads
system.mem_ctrls.wrPerTurnAround::40                3      0.04%     99.58% # Writes before turning the bus around for reads
system.mem_ctrls.wrPerTurnAround::41                3      0.04%     99.62% # Writes before turning the bus around for reads
system.mem_ctrls.wrPerTurnAround::42                6      0.08%     99.70% # Writes before turning the bus around for reads
system.mem_ctrls.wrPerTurnAround::43                2      0.03%     99.72% # Writes before turning the bus around for reads
system.mem_ctrls.wrPerTurnAround::44                6      0.08%     99.80% # Writes before turning the bus around for reads
system.mem_ctrls.wrPerTurnAround::45                1      0.01%     99.81% # Writes before turning the bus around for reads
system.mem_ctrls.wrPerTurnAround::47                1      0.01%     99.82% # Writes before turning the bus around for reads
system.mem_ctrls.wrPerTurnAround::48                4      0.05%     99.87% # Writes before turning the bus around for reads
system.mem_ctrls.wrPerTurnAround::51                9      0.11%     99.99% # Writes before turning the bus around for reads
system.mem_ctrls.wrPerTurnAround::52                1      0.01%    100.00% # Writes before turning the bus around for reads
system.mem_ctrls.wrPerTurnAround::total          7897                       # Writes before turning the bus around for reads
system.mem_ctrls.totQLat                   1934453242                       # Total ticks spent queuing
system.mem_ctrls.totMemAccLat              5248890742                       # Total ticks spent from burst creation until serviced by the DRAM
system.mem_ctrls.totBusLat                  883850000                       # Total ticks spent in databus transfers
system.mem_ctrls.avgQLat                     10943.33                       # Average queueing delay per DRAM burst
system.mem_ctrls.avgBusLat                    5000.00                       # Average bus latency per DRAM burst
system.mem_ctrls.avgMemAccLat                29693.33                       # Average memory access latency per DRAM burst
system.mem_ctrls.avgRdBW                         2.13                       # Average DRAM read bandwidth in MiByte/s
system.mem_ctrls.avgWrBW                         1.72                       # Average achieved write bandwidth in MiByte/s
system.mem_ctrls.avgRdBWSys                      2.14                       # Average system read bandwidth in MiByte/s
system.mem_ctrls.avgWrBWSys                      1.72                       # Average system write bandwidth in MiByte/s
system.mem_ctrls.peakBW                      12800.00                       # Theoretical peak bandwidth in MiByte/s
system.mem_ctrls.busUtil                         0.03                       # Data bus utilization in percentage
system.mem_ctrls.busUtilRead                     0.02                       # Data bus utilization in percentage for reads
system.mem_ctrls.busUtilWrite                    0.01                       # Data bus utilization in percentage for writes
system.mem_ctrls.avgRdQLen                       1.00                       # Average read queue length when enqueuing
system.mem_ctrls.avgWrQLen                      24.42                       # Average write queue length when enqueuing
system.mem_ctrls.readRowHits                   140774                       # Number of row buffer hits during reads
system.mem_ctrls.writeRowHits                  118177                       # Number of row buffer hits during writes
system.mem_ctrls.readRowHitRate                 79.64                       # Row buffer hit rate for reads
system.mem_ctrls.writeRowHitRate                82.91                       # Row buffer hit rate for writes
system.mem_ctrls.avgGap                   16562526.08                       # Average gap between requests
system.mem_ctrls.pageHitRate                    81.10                       # Row buffer hit rate, read and write combined
system.mem_ctrls_0.actEnergy                229839120                       # Energy for activate commands per rank (pJ)
system.mem_ctrls_0.preEnergy                125408250                       # Energy for precharge commands per rank (pJ)
system.mem_ctrls_0.readEnergy               694816200                       # Energy for read commands per rank (pJ)
system.mem_ctrls_0.writeEnergy              465892560                       # Energy for write commands per rank (pJ)
system.mem_ctrls_0.refreshEnergy         346552617840                       # Energy for refresh commands per rank (pJ)
system.mem_ctrls_0.actBackEnergy         149179147425                       # Energy for active background per rank (pJ)
system.mem_ctrls_0.preBackEnergy         3052653894750                       # Energy for precharge background per rank (pJ)
system.mem_ctrls_0.totalEnergy           3549901616145                       # Total energy per rank (pJ)
system.mem_ctrls_0.averagePower            669.053686                       # Core power per rank (mW)
system.mem_ctrls_0.memoryStateTime::IDLE 5078195767000                       # Time in different power states
system.mem_ctrls_0.memoryStateTime::REF  177174140000                       # Time in different power states
system.mem_ctrls_0.memoryStateTime::PRE_PDN            0                       # Time in different power states
system.mem_ctrls_0.memoryStateTime::ACT   50484766750                       # Time in different power states
system.mem_ctrls_0.memoryStateTime::ACT_PDN            0                       # Time in different power states
system.mem_ctrls_1.actEnergy                226301040                       # Energy for activate commands per rank (pJ)
system.mem_ctrls_1.preEnergy                123477750                       # Energy for precharge commands per rank (pJ)
system.mem_ctrls_1.readEnergy               683982000                       # Energy for read commands per rank (pJ)
system.mem_ctrls_1.writeEnergy              457624080                       # Energy for write commands per rank (pJ)
system.mem_ctrls_1.refreshEnergy         346552617840                       # Energy for refresh commands per rank (pJ)
system.mem_ctrls_1.actBackEnergy         148537848690                       # Energy for active background per rank (pJ)
system.mem_ctrls_1.preBackEnergy         3053216437500                       # Energy for precharge background per rank (pJ)
system.mem_ctrls_1.totalEnergy           3549798288900                       # Total energy per rank (pJ)
system.mem_ctrls_1.averagePower            669.034212                       # Core power per rank (mW)
system.mem_ctrls_1.memoryStateTime::IDLE 5079136661250                       # Time in different power states
system.mem_ctrls_1.memoryStateTime::REF  177174140000                       # Time in different power states
system.mem_ctrls_1.memoryStateTime::PRE_PDN            0                       # Time in different power states
system.mem_ctrls_1.memoryStateTime::ACT   49544125250                       # Time in different power states
system.mem_ctrls_1.memoryStateTime::ACT_PDN            0                       # Time in different power states
system.cpu_clk_domain.clock                       500                       # Clock period in ticks
system.cpu0.apic_clk_domain.clock                8000                       # Clock period in ticks
system.cpu0.numCycles                     10611710102                       # number of cpu cycles simulated
system.cpu0.numWorkItemsStarted                     0                       # number of work items this cpu started
system.cpu0.numWorkItemsCompleted                   0                       # number of work items this cpu completed
system.cpu0.committedInsts                   59039296                       # Number of instructions committed
system.cpu0.committedOps                    113305650                       # Number of ops (including micro ops) committed
system.cpu0.num_int_alu_accesses            106292214                       # Number of integer alu accesses
system.cpu0.num_fp_alu_accesses                    48                       # Number of float alu accesses
system.cpu0.num_func_calls                    1017385                       # number of times a function call or return occured
system.cpu0.num_conditional_control_insts     10037497                       # number of instructions that are conditional controls
system.cpu0.num_int_insts                   106292214                       # number of integer instructions
system.cpu0.num_fp_insts                           48                       # number of float instructions
system.cpu0.num_int_register_reads          200616677                       # number of times the integer registers were read
system.cpu0.num_int_register_writes          90211380                       # number of times the integer registers were written
system.cpu0.num_fp_register_reads                  48                       # number of times the floating registers were read
system.cpu0.num_fp_register_writes                  0                       # number of times the floating registers were written
system.cpu0.num_cc_register_reads            60966470                       # number of times the CC registers were read
system.cpu0.num_cc_register_writes           44030878                       # number of times the CC registers were written
system.cpu0.num_mem_refs                     12456031                       # number of memory refs
system.cpu0.num_load_insts                    7518228                       # Number of load instructions
system.cpu0.num_store_insts                   4937803                       # Number of store instructions
system.cpu0.num_idle_cycles              10088651138.334099                       # Number of idle cycles
system.cpu0.num_busy_cycles              523058963.665901                       # Number of busy cycles
system.cpu0.not_idle_fraction                0.049291                       # Percentage of non-idle cycles
system.cpu0.idle_fraction                    0.950709                       # Percentage of idle cycles
system.cpu0.Branches                         11416966                       # Number of branches fetched
system.cpu0.op_class::No_OpClass               131109      0.12%      0.12% # Class of executed instruction
system.cpu0.op_class::IntAlu                100580264     88.77%     88.88% # Class of executed instruction
system.cpu0.op_class::IntMult                   86269      0.08%     88.96% # Class of executed instruction
system.cpu0.op_class::IntDiv                    57079      0.05%     89.01% # Class of executed instruction
system.cpu0.op_class::FloatAdd                      0      0.00%     89.01% # Class of executed instruction
system.cpu0.op_class::FloatCmp                      0      0.00%     89.01% # Class of executed instruction
system.cpu0.op_class::FloatCvt                     16      0.00%     89.01% # Class of executed instruction
system.cpu0.op_class::FloatMult                     0      0.00%     89.01% # Class of executed instruction
system.cpu0.op_class::FloatDiv                      0      0.00%     89.01% # Class of executed instruction
system.cpu0.op_class::FloatSqrt                     0      0.00%     89.01% # Class of executed instruction
system.cpu0.op_class::SimdAdd                       0      0.00%     89.01% # Class of executed instruction
system.cpu0.op_class::SimdAddAcc                    0      0.00%     89.01% # Class of executed instruction
system.cpu0.op_class::SimdAlu                       0      0.00%     89.01% # Class of executed instruction
system.cpu0.op_class::SimdCmp                       0      0.00%     89.01% # Class of executed instruction
system.cpu0.op_class::SimdCvt                       0      0.00%     89.01% # Class of executed instruction
system.cpu0.op_class::SimdMisc                      0      0.00%     89.01% # Class of executed instruction
system.cpu0.op_class::SimdMult                      0      0.00%     89.01% # Class of executed instruction
system.cpu0.op_class::SimdMultAcc                   0      0.00%     89.01% # Class of executed instruction
system.cpu0.op_class::SimdShift                     0      0.00%     89.01% # Class of executed instruction
system.cpu0.op_class::SimdShiftAcc                  0      0.00%     89.01% # Class of executed instruction
system.cpu0.op_class::SimdSqrt                      0      0.00%     89.01% # Class of executed instruction
system.cpu0.op_class::SimdFloatAdd                  0      0.00%     89.01% # Class of executed instruction
system.cpu0.op_class::SimdFloatAlu                  0      0.00%     89.01% # Class of executed instruction
system.cpu0.op_class::SimdFloatCmp                  0      0.00%     89.01% # Class of executed instruction
system.cpu0.op_class::SimdFloatCvt                  0      0.00%     89.01% # Class of executed instruction
system.cpu0.op_class::SimdFloatDiv                  0      0.00%     89.01% # Class of executed instruction
system.cpu0.op_class::SimdFloatMisc                 0      0.00%     89.01% # Class of executed instruction
system.cpu0.op_class::SimdFloatMult                 0      0.00%     89.01% # Class of executed instruction
system.cpu0.op_class::SimdFloatMultAcc              0      0.00%     89.01% # Class of executed instruction
system.cpu0.op_class::SimdFloatSqrt                 0      0.00%     89.01% # Class of executed instruction
system.cpu0.op_class::MemRead                 7514027      6.63%     95.64% # Class of executed instruction
system.cpu0.op_class::MemWrite                4937803      4.36%    100.00% # Class of executed instruction
system.cpu0.op_class::IprAccess                     0      0.00%    100.00% # Class of executed instruction
system.cpu0.op_class::InstPrefetch                  0      0.00%    100.00% # Class of executed instruction
system.cpu0.op_class::total                 113306567                       # Class of executed instruction
system.cpu0.kern.inst.arm                           0                       # number of arm instructions executed
system.cpu0.kern.inst.quiesce                       0                       # number of quiesce instructions executed
system.cpu1.apic_clk_domain.clock                8000                       # Clock period in ticks
system.cpu1.numCycles                     10608777066                       # number of cpu cycles simulated
system.cpu1.numWorkItemsStarted                     0                       # number of work items this cpu started
system.cpu1.numWorkItemsCompleted                   0                       # number of work items this cpu completed
system.cpu1.committedInsts                   48146757                       # Number of instructions committed
system.cpu1.committedOps                     92113830                       # Number of ops (including micro ops) committed
system.cpu1.num_int_alu_accesses             88441893                       # Number of integer alu accesses
system.cpu1.num_fp_alu_accesses                    48                       # Number of float alu accesses
system.cpu1.num_func_calls                    1752446                       # number of times a function call or return occured
system.cpu1.num_conditional_control_insts      8219760                       # number of instructions that are conditional controls
system.cpu1.num_int_insts                    88441893                       # number of integer instructions
system.cpu1.num_fp_insts                           48                       # number of float instructions
system.cpu1.num_int_register_reads          171408328                       # number of times the integer registers were read
system.cpu1.num_int_register_writes          73196137                       # number of times the integer registers were written
system.cpu1.num_fp_register_reads                  48                       # number of times the floating registers were read
system.cpu1.num_fp_register_writes                  0                       # number of times the floating registers were written
system.cpu1.num_cc_register_reads            50924734                       # number of times the CC registers were read
system.cpu1.num_cc_register_writes           32745964                       # number of times the CC registers were written
system.cpu1.num_mem_refs                     14124901                       # number of memory refs
system.cpu1.num_load_insts                    9133293                       # Number of load instructions
system.cpu1.num_store_insts                   4991608                       # Number of store instructions
system.cpu1.num_idle_cycles              10274072284.207695                       # Number of idle cycles
system.cpu1.num_busy_cycles              334704781.792306                       # Number of busy cycles
system.cpu1.not_idle_fraction                0.031550                       # Percentage of non-idle cycles
system.cpu1.idle_fraction                    0.968450                       # Percentage of idle cycles
system.cpu1.Branches                         10581617                       # Number of branches fetched
system.cpu1.op_class::No_OpClass               169787      0.18%      0.18% # Class of executed instruction
system.cpu1.op_class::IntAlu                 77653530     84.30%     84.49% # Class of executed instruction
system.cpu1.op_class::IntMult                   98479      0.11%     84.59% # Class of executed instruction
system.cpu1.op_class::IntDiv                    71918      0.08%     84.67% # Class of executed instruction
system.cpu1.op_class::FloatAdd                      0      0.00%     84.67% # Class of executed instruction
system.cpu1.op_class::FloatCmp                      0      0.00%     84.67% # Class of executed instruction
system.cpu1.op_class::FloatCvt                     16      0.00%     84.67% # Class of executed instruction
system.cpu1.op_class::FloatMult                     0      0.00%     84.67% # Class of executed instruction
system.cpu1.op_class::FloatDiv                      0      0.00%     84.67% # Class of executed instruction
system.cpu1.op_class::FloatSqrt                     0      0.00%     84.67% # Class of executed instruction
system.cpu1.op_class::SimdAdd                       0      0.00%     84.67% # Class of executed instruction
system.cpu1.op_class::SimdAddAcc                    0      0.00%     84.67% # Class of executed instruction
system.cpu1.op_class::SimdAlu                       0      0.00%     84.67% # Class of executed instruction
system.cpu1.op_class::SimdCmp                       0      0.00%     84.67% # Class of executed instruction
system.cpu1.op_class::SimdCvt                       0      0.00%     84.67% # Class of executed instruction
system.cpu1.op_class::SimdMisc                      0      0.00%     84.67% # Class of executed instruction
system.cpu1.op_class::SimdMult                      0      0.00%     84.67% # Class of executed instruction
system.cpu1.op_class::SimdMultAcc                   0      0.00%     84.67% # Class of executed instruction
system.cpu1.op_class::SimdShift                     0      0.00%     84.67% # Class of executed instruction
system.cpu1.op_class::SimdShiftAcc                  0      0.00%     84.67% # Class of executed instruction
system.cpu1.op_class::SimdSqrt                      0      0.00%     84.67% # Class of executed instruction
system.cpu1.op_class::SimdFloatAdd                  0      0.00%     84.67% # Class of executed instruction
system.cpu1.op_class::SimdFloatAlu                  0      0.00%     84.67% # Class of executed instruction
system.cpu1.op_class::SimdFloatCmp                  0      0.00%     84.67% # Class of executed instruction
system.cpu1.op_class::SimdFloatCvt                  0      0.00%     84.67% # Class of executed instruction
system.cpu1.op_class::SimdFloatDiv                  0      0.00%     84.67% # Class of executed instruction
system.cpu1.op_class::SimdFloatMisc                 0      0.00%     84.67% # Class of executed instruction
system.cpu1.op_class::SimdFloatMult                 0      0.00%     84.67% # Class of executed instruction
system.cpu1.op_class::SimdFloatMultAcc              0      0.00%     84.67% # Class of executed instruction
system.cpu1.op_class::SimdFloatSqrt                 0      0.00%     84.67% # Class of executed instruction
system.cpu1.op_class::MemRead                 9129153      9.91%     94.58% # Class of executed instruction
system.cpu1.op_class::MemWrite                4991608      5.42%    100.00% # Class of executed instruction
system.cpu1.op_class::IprAccess                     0      0.00%    100.00% # Class of executed instruction
system.cpu1.op_class::InstPrefetch                  0      0.00%    100.00% # Class of executed instruction
system.cpu1.op_class::total                  92114491                       # Class of executed instruction
system.cpu1.kern.inst.arm                           0                       # number of arm instructions executed
system.cpu1.kern.inst.quiesce                       0                       # number of quiesce instructions executed
system.iobus.trans_dist::ReadReq               842290                       # Transaction distribution
system.iobus.trans_dist::ReadResp              842290                       # Transaction distribution
system.iobus.trans_dist::WriteReq               35657                       # Transaction distribution
system.iobus.trans_dist::WriteResp              35657                       # Transaction distribution
system.iobus.trans_dist::MessageReq              1791                       # Transaction distribution
system.iobus.trans_dist::MessageResp             1791                       # Transaction distribution
system.iobus.pkt_count_system.pc.south_bridge.io_apic.int_master::system.ruby.l1_cntrl0.sequencer.pio-slave-port         1702                       # Packet count per connected master and slave (bytes)
system.iobus.pkt_count_system.pc.south_bridge.io_apic.int_master::system.ruby.l1_cntrl1.sequencer.pio-slave-port         1646                       # Packet count per connected master and slave (bytes)
system.iobus.pkt_count_system.pc.south_bridge.io_apic.int_master::total         3348                       # Packet count per connected master and slave (bytes)
system.iobus.pkt_count_system.ruby.l1_cntrl0.sequencer.mem-master-port::system.pc.south_bridge.cmos.pio           36                       # Packet count per connected master and slave (bytes)
system.iobus.pkt_count_system.ruby.l1_cntrl0.sequencer.mem-master-port::system.pc.south_bridge.ide.pio         5758                       # Packet count per connected master and slave (bytes)
system.iobus.pkt_count_system.ruby.l1_cntrl0.sequencer.mem-master-port::system.pc.south_bridge.ide-pciconf           88                       # Packet count per connected master and slave (bytes)
system.iobus.pkt_count_system.ruby.l1_cntrl0.sequencer.mem-master-port::system.pc.south_bridge.keyboard.pio          968                       # Packet count per connected master and slave (bytes)
system.iobus.pkt_count_system.ruby.l1_cntrl0.sequencer.mem-master-port::system.pc.south_bridge.pic1.pio           66                       # Packet count per connected master and slave (bytes)
system.iobus.pkt_count_system.ruby.l1_cntrl0.sequencer.mem-master-port::system.pc.south_bridge.pic2.pio           38                       # Packet count per connected master and slave (bytes)
system.iobus.pkt_count_system.ruby.l1_cntrl0.sequencer.mem-master-port::system.pc.south_bridge.pit.pio           30                       # Packet count per connected master and slave (bytes)
system.iobus.pkt_count_system.ruby.l1_cntrl0.sequencer.mem-master-port::system.pc.south_bridge.speaker.pio       917434                       # Packet count per connected master and slave (bytes)
system.iobus.pkt_count_system.ruby.l1_cntrl0.sequencer.mem-master-port::system.pc.south_bridge.io_apic.pio          964                       # Packet count per connected master and slave (bytes)
system.iobus.pkt_count_system.ruby.l1_cntrl0.sequencer.mem-master-port::system.pc.i_dont_exist1.pio           90                       # Packet count per connected master and slave (bytes)
system.iobus.pkt_count_system.ruby.l1_cntrl0.sequencer.mem-master-port::system.pc.behind_pci.pio            2                       # Packet count per connected master and slave (bytes)
system.iobus.pkt_count_system.ruby.l1_cntrl0.sequencer.mem-master-port::system.pc.com_1.pio        14814                       # Packet count per connected master and slave (bytes)
system.iobus.pkt_count_system.ruby.l1_cntrl0.sequencer.mem-master-port::system.ruby.l1_cntrl0.sequencer.pio-slave-port       729402                       # Packet count per connected master and slave (bytes)
system.iobus.pkt_count_system.ruby.l1_cntrl0.sequencer.mem-master-port::system.ruby.l1_cntrl1.sequencer.pio-slave-port          158                       # Packet count per connected master and slave (bytes)
system.iobus.pkt_count_system.ruby.l1_cntrl0.sequencer.mem-master-port::system.pc.pciconfig.pio         2126                       # Packet count per connected master and slave (bytes)
system.iobus.pkt_count_system.ruby.l1_cntrl0.sequencer.mem-master-port::total      1671974                       # Packet count per connected master and slave (bytes)
system.iobus.pkt_count_system.ruby.l1_cntrl1.sequencer.mem-master-port::system.pc.south_bridge.cmos.pio           16                       # Packet count per connected master and slave (bytes)
system.iobus.pkt_count_system.ruby.l1_cntrl1.sequencer.mem-master-port::system.pc.south_bridge.dma1.pio            6                       # Packet count per connected master and slave (bytes)
system.iobus.pkt_count_system.ruby.l1_cntrl1.sequencer.mem-master-port::system.pc.south_bridge.ide.pio         5284                       # Packet count per connected master and slave (bytes)
system.iobus.pkt_count_system.ruby.l1_cntrl1.sequencer.mem-master-port::system.pc.south_bridge.ide-pciconf           92                       # Packet count per connected master and slave (bytes)
system.iobus.pkt_count_system.ruby.l1_cntrl1.sequencer.mem-master-port::system.pc.south_bridge.keyboard.pio          396                       # Packet count per connected master and slave (bytes)
system.iobus.pkt_count_system.ruby.l1_cntrl1.sequencer.mem-master-port::system.pc.south_bridge.pic1.pio           28                       # Packet count per connected master and slave (bytes)
system.iobus.pkt_count_system.ruby.l1_cntrl1.sequencer.mem-master-port::system.pc.south_bridge.pic2.pio           16                       # Packet count per connected master and slave (bytes)
system.iobus.pkt_count_system.ruby.l1_cntrl1.sequencer.mem-master-port::system.pc.south_bridge.pit.pio        30330                       # Packet count per connected master and slave (bytes)
system.iobus.pkt_count_system.ruby.l1_cntrl1.sequencer.mem-master-port::system.pc.south_bridge.io_apic.pio          384                       # Packet count per connected master and slave (bytes)
system.iobus.pkt_count_system.ruby.l1_cntrl1.sequencer.mem-master-port::system.pc.i_dont_exist1.pio        30418                       # Packet count per connected master and slave (bytes)
system.iobus.pkt_count_system.ruby.l1_cntrl1.sequencer.mem-master-port::system.pc.com_1.pio        12448                       # Packet count per connected master and slave (bytes)
system.iobus.pkt_count_system.ruby.l1_cntrl1.sequencer.mem-master-port::system.pc.fake_com_2.pio           12                       # Packet count per connected master and slave (bytes)
system.iobus.pkt_count_system.ruby.l1_cntrl1.sequencer.mem-master-port::system.pc.fake_com_3.pio           12                       # Packet count per connected master and slave (bytes)
system.iobus.pkt_count_system.ruby.l1_cntrl1.sequencer.mem-master-port::system.pc.fake_com_4.pio           12                       # Packet count per connected master and slave (bytes)
system.iobus.pkt_count_system.ruby.l1_cntrl1.sequencer.mem-master-port::system.pc.fake_floppy.pio           10                       # Packet count per connected master and slave (bytes)
system.iobus.pkt_count_system.ruby.l1_cntrl1.sequencer.mem-master-port::system.ruby.l1_cntrl0.sequencer.pio-slave-port           76                       # Packet count per connected master and slave (bytes)
system.iobus.pkt_count_system.ruby.l1_cntrl1.sequencer.mem-master-port::system.ruby.l1_cntrl1.sequencer.pio-slave-port         4614                       # Packet count per connected master and slave (bytes)
system.iobus.pkt_count_system.ruby.l1_cntrl1.sequencer.mem-master-port::total        84154                       # Packet count per connected master and slave (bytes)
system.iobus.pkt_count::total                 1759476                       # Packet count per connected master and slave (bytes)
system.iobus.pkt_size_system.pc.south_bridge.io_apic.int_master::system.ruby.l1_cntrl0.sequencer.pio-slave-port         3404                       # Cumulative packet size per connected master and slave (bytes)
system.iobus.pkt_size_system.pc.south_bridge.io_apic.int_master::system.ruby.l1_cntrl1.sequencer.pio-slave-port         3292                       # Cumulative packet size per connected master and slave (bytes)
system.iobus.pkt_size_system.pc.south_bridge.io_apic.int_master::total         6696                       # Cumulative packet size per connected master and slave (bytes)
system.iobus.pkt_size_system.ruby.l1_cntrl0.sequencer.mem-master-port::system.pc.south_bridge.cmos.pio           18                       # Cumulative packet size per connected master and slave (bytes)
system.iobus.pkt_size_system.ruby.l1_cntrl0.sequencer.mem-master-port::system.pc.south_bridge.ide.pio         3266                       # Cumulative packet size per connected master and slave (bytes)
system.iobus.pkt_size_system.ruby.l1_cntrl0.sequencer.mem-master-port::system.pc.south_bridge.ide-pciconf          149                       # Cumulative packet size per connected master and slave (bytes)
system.iobus.pkt_size_system.ruby.l1_cntrl0.sequencer.mem-master-port::system.pc.south_bridge.keyboard.pio          484                       # Cumulative packet size per connected master and slave (bytes)
system.iobus.pkt_size_system.ruby.l1_cntrl0.sequencer.mem-master-port::system.pc.south_bridge.pic1.pio           33                       # Cumulative packet size per connected master and slave (bytes)
system.iobus.pkt_size_system.ruby.l1_cntrl0.sequencer.mem-master-port::system.pc.south_bridge.pic2.pio           19                       # Cumulative packet size per connected master and slave (bytes)
system.iobus.pkt_size_system.ruby.l1_cntrl0.sequencer.mem-master-port::system.pc.south_bridge.pit.pio           15                       # Cumulative packet size per connected master and slave (bytes)
system.iobus.pkt_size_system.ruby.l1_cntrl0.sequencer.mem-master-port::system.pc.south_bridge.speaker.pio       458717                       # Cumulative packet size per connected master and slave (bytes)
system.iobus.pkt_size_system.ruby.l1_cntrl0.sequencer.mem-master-port::system.pc.south_bridge.io_apic.pio         1928                       # Cumulative packet size per connected master and slave (bytes)
system.iobus.pkt_size_system.ruby.l1_cntrl0.sequencer.mem-master-port::system.pc.i_dont_exist1.pio           45                       # Cumulative packet size per connected master and slave (bytes)
system.iobus.pkt_size_system.ruby.l1_cntrl0.sequencer.mem-master-port::system.pc.behind_pci.pio            1                       # Cumulative packet size per connected master and slave (bytes)
system.iobus.pkt_size_system.ruby.l1_cntrl0.sequencer.mem-master-port::system.pc.com_1.pio         7407                       # Cumulative packet size per connected master and slave (bytes)
system.iobus.pkt_size_system.ruby.l1_cntrl0.sequencer.mem-master-port::system.ruby.l1_cntrl0.sequencer.pio-slave-port      1458798                       # Cumulative packet size per connected master and slave (bytes)
system.iobus.pkt_size_system.ruby.l1_cntrl0.sequencer.mem-master-port::system.ruby.l1_cntrl1.sequencer.pio-slave-port          316                       # Cumulative packet size per connected master and slave (bytes)
system.iobus.pkt_size_system.ruby.l1_cntrl0.sequencer.mem-master-port::system.pc.pciconfig.pio         4252                       # Cumulative packet size per connected master and slave (bytes)
system.iobus.pkt_size_system.ruby.l1_cntrl0.sequencer.mem-master-port::total      1935448                       # Cumulative packet size per connected master and slave (bytes)
system.iobus.pkt_size_system.ruby.l1_cntrl1.sequencer.mem-master-port::system.pc.south_bridge.cmos.pio            8                       # Cumulative packet size per connected master and slave (bytes)
system.iobus.pkt_size_system.ruby.l1_cntrl1.sequencer.mem-master-port::system.pc.south_bridge.dma1.pio            3                       # Cumulative packet size per connected master and slave (bytes)
system.iobus.pkt_size_system.ruby.l1_cntrl1.sequencer.mem-master-port::system.pc.south_bridge.ide.pio         3394                       # Cumulative packet size per connected master and slave (bytes)
system.iobus.pkt_size_system.ruby.l1_cntrl1.sequencer.mem-master-port::system.pc.south_bridge.ide-pciconf           72                       # Cumulative packet size per connected master and slave (bytes)
system.iobus.pkt_size_system.ruby.l1_cntrl1.sequencer.mem-master-port::system.pc.south_bridge.keyboard.pio          198                       # Cumulative packet size per connected master and slave (bytes)
system.iobus.pkt_size_system.ruby.l1_cntrl1.sequencer.mem-master-port::system.pc.south_bridge.pic1.pio           14                       # Cumulative packet size per connected master and slave (bytes)
system.iobus.pkt_size_system.ruby.l1_cntrl1.sequencer.mem-master-port::system.pc.south_bridge.pic2.pio            8                       # Cumulative packet size per connected master and slave (bytes)
system.iobus.pkt_size_system.ruby.l1_cntrl1.sequencer.mem-master-port::system.pc.south_bridge.pit.pio        15165                       # Cumulative packet size per connected master and slave (bytes)
system.iobus.pkt_size_system.ruby.l1_cntrl1.sequencer.mem-master-port::system.pc.south_bridge.io_apic.pio          768                       # Cumulative packet size per connected master and slave (bytes)
system.iobus.pkt_size_system.ruby.l1_cntrl1.sequencer.mem-master-port::system.pc.i_dont_exist1.pio        15209                       # Cumulative packet size per connected master and slave (bytes)
system.iobus.pkt_size_system.ruby.l1_cntrl1.sequencer.mem-master-port::system.pc.com_1.pio         6224                       # Cumulative packet size per connected master and slave (bytes)
system.iobus.pkt_size_system.ruby.l1_cntrl1.sequencer.mem-master-port::system.pc.fake_com_2.pio            6                       # Cumulative packet size per connected master and slave (bytes)
system.iobus.pkt_size_system.ruby.l1_cntrl1.sequencer.mem-master-port::system.pc.fake_com_3.pio            6                       # Cumulative packet size per connected master and slave (bytes)
system.iobus.pkt_size_system.ruby.l1_cntrl1.sequencer.mem-master-port::system.pc.fake_com_4.pio            6                       # Cumulative packet size per connected master and slave (bytes)
system.iobus.pkt_size_system.ruby.l1_cntrl1.sequencer.mem-master-port::system.pc.fake_floppy.pio            5                       # Cumulative packet size per connected master and slave (bytes)
system.iobus.pkt_size_system.ruby.l1_cntrl1.sequencer.mem-master-port::system.ruby.l1_cntrl0.sequencer.pio-slave-port          152                       # Cumulative packet size per connected master and slave (bytes)
system.iobus.pkt_size_system.ruby.l1_cntrl1.sequencer.mem-master-port::system.ruby.l1_cntrl1.sequencer.pio-slave-port         9225                       # Cumulative packet size per connected master and slave (bytes)
system.iobus.pkt_size_system.ruby.l1_cntrl1.sequencer.mem-master-port::total        50463                       # Cumulative packet size per connected master and slave (bytes)
system.iobus.pkt_size::total                  1992607                       # Cumulative packet size per connected master and slave (bytes)
system.iobus.reqLayer0.occupancy                43500                       # Layer occupancy (ticks)
system.iobus.reqLayer0.utilization                0.0                       # Layer utilization (%)
system.iobus.reqLayer1.occupancy                 6500                       # Layer occupancy (ticks)
system.iobus.reqLayer1.utilization                0.0                       # Layer utilization (%)
system.iobus.reqLayer2.occupancy              9032500                       # Layer occupancy (ticks)
system.iobus.reqLayer2.utilization                0.0                       # Layer utilization (%)
system.iobus.reqLayer3.occupancy               154500                       # Layer occupancy (ticks)
system.iobus.reqLayer3.utilization                0.0                       # Layer utilization (%)
system.iobus.reqLayer4.occupancy               940000                       # Layer occupancy (ticks)
system.iobus.reqLayer4.utilization                0.0                       # Layer utilization (%)
system.iobus.reqLayer5.occupancy                92000                       # Layer occupancy (ticks)
system.iobus.reqLayer5.utilization                0.0                       # Layer utilization (%)
system.iobus.reqLayer6.occupancy                52500                       # Layer occupancy (ticks)
system.iobus.reqLayer6.utilization                0.0                       # Layer utilization (%)
system.iobus.reqLayer7.occupancy             20247500                       # Layer occupancy (ticks)
system.iobus.reqLayer7.utilization                0.0                       # Layer utilization (%)
system.iobus.reqLayer8.occupancy            458718000                       # Layer occupancy (ticks)
system.iobus.reqLayer8.utilization                0.0                       # Layer utilization (%)
system.iobus.reqLayer9.occupancy              1157500                       # Layer occupancy (ticks)
system.iobus.reqLayer9.utilization                0.0                       # Layer utilization (%)
system.iobus.reqLayer10.occupancy            30508000                       # Layer occupancy (ticks)
system.iobus.reqLayer10.utilization               0.0                       # Layer utilization (%)
system.iobus.reqLayer12.occupancy                2000                       # Layer occupancy (ticks)
system.iobus.reqLayer12.utilization               0.0                       # Layer utilization (%)
system.iobus.reqLayer13.occupancy            20468500                       # Layer occupancy (ticks)
system.iobus.reqLayer13.utilization               0.0                       # Layer utilization (%)
system.iobus.reqLayer14.occupancy                9500                       # Layer occupancy (ticks)
system.iobus.reqLayer14.utilization               0.0                       # Layer utilization (%)
system.iobus.reqLayer15.occupancy                9500                       # Layer occupancy (ticks)
system.iobus.reqLayer15.utilization               0.0                       # Layer utilization (%)
system.iobus.reqLayer16.occupancy                9000                       # Layer occupancy (ticks)
system.iobus.reqLayer16.utilization               0.0                       # Layer utilization (%)
system.iobus.reqLayer17.occupancy               11500                       # Layer occupancy (ticks)
system.iobus.reqLayer17.utilization               0.0                       # Layer utilization (%)
system.iobus.reqLayer18.occupancy           369412820                       # Layer occupancy (ticks)
system.iobus.reqLayer18.utilization               0.0                       # Layer utilization (%)
system.iobus.reqLayer19.occupancy             7528580                       # Layer occupancy (ticks)
system.iobus.reqLayer19.utilization               0.0                       # Layer utilization (%)
system.iobus.reqLayer21.occupancy             1593000                       # Layer occupancy (ticks)
system.iobus.reqLayer21.utilization               0.0                       # Layer utilization (%)
system.iobus.respLayer0.occupancy             2422900                       # Layer occupancy (ticks)
system.iobus.respLayer0.utilization               0.0                       # Layer utilization (%)
system.iobus.respLayer2.occupancy          1846190500                       # Layer occupancy (ticks)
system.iobus.respLayer2.utilization               0.0                       # Layer utilization (%)
system.iobus.respLayer4.occupancy            57610000                       # Layer occupancy (ticks)
system.iobus.respLayer4.utilization               0.0                       # Layer utilization (%)
system.pc.south_bridge.ide.disks0.dma_read_full_pages            0                       # Number of full page size DMA reads (not PRD).
system.pc.south_bridge.ide.disks0.dma_read_bytes        32768                       # Number of bytes transfered via DMA reads (not PRD).
system.pc.south_bridge.ide.disks0.dma_read_txs           30                       # Number of DMA read transactions (not PRD).
system.pc.south_bridge.ide.disks0.dma_write_full_pages          693                       # Number of full page size DMA writes.
system.pc.south_bridge.ide.disks0.dma_write_bytes      2987008                       # Number of bytes transfered via DMA writes.
system.pc.south_bridge.ide.disks0.dma_write_txs          813                       # Number of DMA write transactions.
system.pc.south_bridge.ide.disks1.dma_read_full_pages            0                       # Number of full page size DMA reads (not PRD).
system.pc.south_bridge.ide.disks1.dma_read_bytes            0                       # Number of bytes transfered via DMA reads (not PRD).
system.pc.south_bridge.ide.disks1.dma_read_txs            0                       # Number of DMA read transactions (not PRD).
system.pc.south_bridge.ide.disks1.dma_write_full_pages            1                       # Number of full page size DMA writes.
system.pc.south_bridge.ide.disks1.dma_write_bytes         4096                       # Number of bytes transfered via DMA writes.
system.pc.south_bridge.ide.disks1.dma_write_txs            1                       # Number of DMA write transactions.
system.ruby.clk_domain.clock                      500                       # Clock period in ticks
system.ruby.delayHist::bucket_size                  4                       # delay histogram for all message
system.ruby.delayHist::max_bucket                  39                       # delay histogram for all message
system.ruby.delayHist::samples               10891010                       # delay histogram for all message
system.ruby.delayHist::mean                  0.442869                       # delay histogram for all message
system.ruby.delayHist::stdev                 1.830823                       # delay histogram for all message
system.ruby.delayHist                    |    10288616     94.47%     94.47% |        1282      0.01%     94.48% |      600649      5.52%    100.00% |         161      0.00%    100.00% |         257      0.00%    100.00% |          11      0.00%    100.00% |          34      0.00%    100.00% |           0      0.00%    100.00% |           0      0.00%    100.00% |           0      0.00%    100.00% # delay histogram for all message
system.ruby.delayHist::total                 10891010                       # delay histogram for all message
system.ruby.outstanding_req_hist::bucket_size            1                      
system.ruby.outstanding_req_hist::max_bucket            9                      
system.ruby.outstanding_req_hist::samples    152756591                      
system.ruby.outstanding_req_hist::mean       1.000166                      
system.ruby.outstanding_req_hist::gmean      1.000115                      
system.ruby.outstanding_req_hist::stdev      0.012901                      
system.ruby.outstanding_req_hist         |           0      0.00%      0.00% |   152731162     99.98%     99.98% |       25429      0.02%    100.00% |           0      0.00%    100.00% |           0      0.00%    100.00% |           0      0.00%    100.00% |           0      0.00%    100.00% |           0      0.00%    100.00% |           0      0.00%    100.00% |           0      0.00%    100.00%
system.ruby.outstanding_req_hist::total     152756591                      
system.ruby.latency_hist::bucket_size             128                      
system.ruby.latency_hist::max_bucket             1279                      
system.ruby.latency_hist::samples           152756590                      
system.ruby.latency_hist::mean               3.433707                      
system.ruby.latency_hist::gmean              3.107293                      
system.ruby.latency_hist::stdev              5.733578                      
system.ruby.latency_hist                 |   152719525     99.98%     99.98% |       28048      0.02%     99.99% |        2695      0.00%    100.00% |        3637      0.00%    100.00% |        2109      0.00%    100.00% |         523      0.00%    100.00% |           9      0.00%    100.00% |          20      0.00%    100.00% |          17      0.00%    100.00% |           7      0.00%    100.00%
system.ruby.latency_hist::total             152756590                      
system.ruby.hit_latency_hist::bucket_size            1                      
system.ruby.hit_latency_hist::max_bucket            9                      
system.ruby.hit_latency_hist::samples       150094333                      
system.ruby.hit_latency_hist::mean                  3                      
system.ruby.hit_latency_hist::gmean          3.000000                      
system.ruby.hit_latency_hist             |           0      0.00%      0.00% |           0      0.00%      0.00% |           0      0.00%      0.00% |   150094333    100.00%    100.00% |           0      0.00%    100.00% |           0      0.00%    100.00% |           0      0.00%    100.00% |           0      0.00%    100.00% |           0      0.00%    100.00% |           0      0.00%    100.00%
system.ruby.hit_latency_hist::total         150094333                      
system.ruby.miss_latency_hist::bucket_size          128                      
system.ruby.miss_latency_hist::max_bucket         1279                      
system.ruby.miss_latency_hist::samples        2662257                      
system.ruby.miss_latency_hist::mean         27.885506                      
system.ruby.miss_latency_hist::gmean        22.530762                      
system.ruby.miss_latency_hist::stdev        35.745831                      
system.ruby.miss_latency_hist            |     2625192     98.61%     98.61% |       28048      1.05%     99.66% |        2695      0.10%     99.76% |        3637      0.14%     99.90% |        2109      0.08%     99.98% |         523      0.02%    100.00% |           9      0.00%    100.00% |          20      0.00%    100.00% |          17      0.00%    100.00% |           7      0.00%    100.00%
system.ruby.miss_latency_hist::total          2662257                      
system.ruby.l1_cntrl0.L1Dcache.demand_hits     11119260                       # Number of cache demand hits
system.ruby.l1_cntrl0.L1Dcache.demand_misses       532503                       # Number of cache demand misses
system.ruby.l1_cntrl0.L1Dcache.demand_accesses     11651763                       # Number of cache demand accesses
system.ruby.l1_cntrl0.L1Icache.demand_hits     68488995                       # Number of cache demand hits
system.ruby.l1_cntrl0.L1Icache.demand_misses       323914                       # Number of cache demand misses
system.ruby.l1_cntrl0.L1Icache.demand_accesses     68812909                       # Number of cache demand accesses
system.ruby.l1_cntrl0.prefetcher.miss_observed            0                       # number of misses observed
system.ruby.l1_cntrl0.prefetcher.allocated_streams            0                       # number of streams allocated for prefetching
system.ruby.l1_cntrl0.prefetcher.prefetches_requested            0                       # number of prefetch requests made
system.ruby.l1_cntrl0.prefetcher.prefetches_accepted            0                       # number of prefetch requests accepted
system.ruby.l1_cntrl0.prefetcher.dropped_prefetches            0                       # number of prefetch requests dropped
system.ruby.l1_cntrl0.prefetcher.hits               0                       # number of prefetched blocks accessed
system.ruby.l1_cntrl0.prefetcher.partial_hits            0                       # number of misses observed for a block being prefetched
system.ruby.l1_cntrl0.prefetcher.pages_crossed            0                       # number of prefetches across pages
system.ruby.l1_cntrl0.prefetcher.misses_on_prefetched_blocks            0                       # number of misses for blocks that were prefetched, yet missed
system.ruby.l1_cntrl0.fully_busy_cycles            16                       # cycles for which number of transistions == max transitions
system.ruby.l1_cntrl1.L1Dcache.demand_hits     12794938                       # Number of cache demand hits
system.ruby.l1_cntrl1.L1Dcache.demand_misses      1313574                       # Number of cache demand misses
system.ruby.l1_cntrl1.L1Dcache.demand_accesses     14108512                       # Number of cache demand accesses
system.ruby.l1_cntrl1.L1Icache.demand_hits     57691140                       # Number of cache demand hits
system.ruby.l1_cntrl1.L1Icache.demand_misses       492266                       # Number of cache demand misses
system.ruby.l1_cntrl1.L1Icache.demand_accesses     58183406                       # Number of cache demand accesses
system.ruby.l1_cntrl1.prefetcher.miss_observed            0                       # number of misses observed
system.ruby.l1_cntrl1.prefetcher.allocated_streams            0                       # number of streams allocated for prefetching
system.ruby.l1_cntrl1.prefetcher.prefetches_requested            0                       # number of prefetch requests made
system.ruby.l1_cntrl1.prefetcher.prefetches_accepted            0                       # number of prefetch requests accepted
system.ruby.l1_cntrl1.prefetcher.dropped_prefetches            0                       # number of prefetch requests dropped
system.ruby.l1_cntrl1.prefetcher.hits               0                       # number of prefetched blocks accessed
system.ruby.l1_cntrl1.prefetcher.partial_hits            0                       # number of misses observed for a block being prefetched
system.ruby.l1_cntrl1.prefetcher.pages_crossed            0                       # number of prefetches across pages
system.ruby.l1_cntrl1.prefetcher.misses_on_prefetched_blocks            0                       # number of misses for blocks that were prefetched, yet missed
system.ruby.l1_cntrl1.fully_busy_cycles             7                       # cycles for which number of transistions == max transitions
system.ruby.l2_cntrl0.L2cache.demand_hits      2435460                       # Number of cache demand hits
system.ruby.l2_cntrl0.L2cache.demand_misses       226797                       # Number of cache demand misses
[...]
system.ruby.Locked_RMW_Write.latency_hist::mean            3                      
system.ruby.Locked_RMW_Write.latency_hist::gmean     3.000000                      
system.ruby.Locked_RMW_Write.latency_hist |           0      0.00%      0.00% |           0      0.00%      0.00% |           0      0.00%      0.00% |      339654    100.00%    100.00% |           0      0.00%    100.00% |           0      0.00%    100.00% |           0      0.00%    100.00% |           0      0.00%    100.00% |           0      0.00%    100.00% |           0      0.00%    100.00%
system.ruby.Locked_RMW_Write.latency_hist::total       339654                      
system.ruby.Locked_RMW_Write.hit_latency_hist::bucket_size            1                      
system.ruby.Locked_RMW_Write.hit_latency_hist::max_bucket            9                      
system.ruby.Locked_RMW_Write.hit_latency_hist::samples       339654                      
system.ruby.Locked_RMW_Write.hit_latency_hist::mean            3                      
system.ruby.Locked_RMW_Write.hit_latency_hist::gmean     3.000000                      
system.ruby.Locked_RMW_Write.hit_latency_hist |           0      0.00%      0.00% |           0      0.00%      0.00% |           0      0.00%      0.00% |      339654    100.00%    100.00% |           0      0.00%    100.00% |           0      0.00%    100.00% |           0      0.00%    100.00% |           0      0.00%    100.00% |           0      0.00%    100.00% |           0      0.00%    100.00%
system.ruby.Locked_RMW_Write.hit_latency_hist::total       339654                      
system.ruby.Directory_Controller.Fetch         177212      0.00%      0.00%
system.ruby.Directory_Controller.Data           97371      0.00%      0.00%
system.ruby.Directory_Controller.Memory_Data       177674      0.00%      0.00%
system.ruby.Directory_Controller.Memory_Ack       142679      0.00%      0.00%
system.ruby.Directory_Controller.DMA_READ          809      0.00%      0.00%
system.ruby.Directory_Controller.DMA_WRITE        46736      0.00%      0.00%
system.ruby.Directory_Controller.CleanReplacement        15060      0.00%      0.00%
system.ruby.Directory_Controller.I.Fetch       177212      0.00%      0.00%
system.ruby.Directory_Controller.I.DMA_READ          462      0.00%      0.00%
system.ruby.Directory_Controller.I.DMA_WRITE        45308      0.00%      0.00%
system.ruby.Directory_Controller.ID.Memory_Data          462      0.00%      0.00%
system.ruby.Directory_Controller.ID_W.Memory_Ack        45308      0.00%      0.00%
system.ruby.Directory_Controller.M.Data         95596      0.00%      0.00%
system.ruby.Directory_Controller.M.DMA_READ          347      0.00%      0.00%
system.ruby.Directory_Controller.M.DMA_WRITE         1428      0.00%      0.00%
system.ruby.Directory_Controller.M.CleanReplacement        15060      0.00%      0.00%
system.ruby.Directory_Controller.IM.Memory_Data       177212      0.00%      0.00%
system.ruby.Directory_Controller.MI.Memory_Ack        95596      0.00%      0.00%
system.ruby.Directory_Controller.M_DRD.Data          347      0.00%      0.00%
system.ruby.Directory_Controller.M_DRDI.Memory_Ack          347      0.00%      0.00%
system.ruby.Directory_Controller.M_DWR.Data         1428      0.00%      0.00%
system.ruby.Directory_Controller.M_DWRI.Memory_Ack         1428      0.00%      0.00%
system.ruby.DMA_Controller.ReadRequest   |         809    100.00%    100.00% |           0      0.00%    100.00%
system.ruby.DMA_Controller.ReadRequest::total          809                      
system.ruby.DMA_Controller.WriteRequest  |       46736    100.00%    100.00% |           0      0.00%    100.00%
system.ruby.DMA_Controller.WriteRequest::total        46736                      
system.ruby.DMA_Controller.Data          |         809    100.00%    100.00% |           0      0.00%    100.00%
system.ruby.DMA_Controller.Data::total            809                      
system.ruby.DMA_Controller.Ack           |       46736    100.00%    100.00% |           0      0.00%    100.00%
system.ruby.DMA_Controller.Ack::total           46736                      
system.ruby.DMA_Controller.READY.ReadRequest |         809    100.00%    100.00% |           0      0.00%    100.00%
system.ruby.DMA_Controller.READY.ReadRequest::total          809                      
system.ruby.DMA_Controller.READY.WriteRequest |       46736    100.00%    100.00% |           0      0.00%    100.00%
system.ruby.DMA_Controller.READY.WriteRequest::total        46736                      
system.ruby.DMA_Controller.BUSY_RD.Data  |         809    100.00%    100.00% |           0      0.00%    100.00%
system.ruby.DMA_Controller.BUSY_RD.Data::total          809                      
system.ruby.DMA_Controller.BUSY_WR.Ack   |       46736    100.00%    100.00% |           0      0.00%    100.00%
system.ruby.DMA_Controller.BUSY_WR.Ack::total        46736                      
system.ruby.L1Cache_Controller.Load      |     6279317     41.78%     41.78% |     8748595     58.22%    100.00%
system.ruby.L1Cache_Controller.Load::total     15027912                      
system.ruby.L1Cache_Controller.Ifetch    |    68812914     54.18%     54.18% |    58183407     45.82%    100.00%
system.ruby.L1Cache_Controller.Ifetch::total    126996321                      
system.ruby.L1Cache_Controller.Store     |     5372446     50.06%     50.06% |     5359917     49.94%    100.00%
system.ruby.L1Cache_Controller.Store::total     10732363                      
system.ruby.L1Cache_Controller.Inv       |       16157     48.07%     48.07% |       17455     51.93%    100.00%
system.ruby.L1Cache_Controller.Inv::total        33612                      
system.ruby.L1Cache_Controller.L1_Replacement |      828605     31.79%     31.79% |     1777971     68.21%    100.00%
system.ruby.L1Cache_Controller.L1_Replacement::total      2606576                      
system.ruby.L1Cache_Controller.Fwd_GETX  |       12248     51.07%     51.07% |       11736     48.93%    100.00%
system.ruby.L1Cache_Controller.Fwd_GETX::total        23984                      
system.ruby.L1Cache_Controller.Fwd_GETS  |       14251     55.67%     55.67% |       11346     44.33%    100.00%
system.ruby.L1Cache_Controller.Fwd_GETS::total        25597                      
system.ruby.L1Cache_Controller.Fwd_GET_INSTR |           4    100.00%    100.00% |           0      0.00%    100.00%
system.ruby.L1Cache_Controller.Fwd_GET_INSTR::total            4                      
system.ruby.L1Cache_Controller.Data      |         818     44.46%     44.46% |        1022     55.54%    100.00%
system.ruby.L1Cache_Controller.Data::total         1840                      
system.ruby.L1Cache_Controller.Data_Exclusive |      252712     19.73%     19.73% |     1028027     80.27%    100.00%
system.ruby.L1Cache_Controller.Data_Exclusive::total      1280739                      
system.ruby.L1Cache_Controller.DataS_fromL1 |       11346     44.32%     44.32% |       14255     55.68%    100.00%
system.ruby.L1Cache_Controller.DataS_fromL1::total        25601                      
system.ruby.L1Cache_Controller.Data_all_Acks |      579316     43.50%     43.50% |      752306     56.50%    100.00%
system.ruby.L1Cache_Controller.Data_all_Acks::total      1331622                      
system.ruby.L1Cache_Controller.Ack       |       12225     54.44%     54.44% |       10230     45.56%    100.00%
system.ruby.L1Cache_Controller.Ack::total        22455                      
system.ruby.L1Cache_Controller.Ack_all   |       13043     53.69%     53.69% |       11252     46.31%    100.00%
system.ruby.L1Cache_Controller.Ack_all::total        24295                      
system.ruby.L1Cache_Controller.WB_Ack    |      468894     27.82%     27.82% |     1216556     72.18%    100.00%
system.ruby.L1Cache_Controller.WB_Ack::total      1685450                      
system.ruby.L1Cache_Controller.NP.Load   |      280382     20.44%     20.44% |     1091184     79.56%    100.00%
system.ruby.L1Cache_Controller.NP.Load::total      1371566                      
system.ruby.L1Cache_Controller.NP.Ifetch |      323814     39.71%     39.71% |      491732     60.29%    100.00%
system.ruby.L1Cache_Controller.NP.Ifetch::total       815546                      
system.ruby.L1Cache_Controller.NP.Store  |      225433     53.48%     53.48% |      196079     46.52%    100.00%
system.ruby.L1Cache_Controller.NP.Store::total       421512                      
system.ruby.L1Cache_Controller.NP.Inv    |        4849     54.09%     54.09% |        4115     45.91%    100.00%
system.ruby.L1Cache_Controller.NP.Inv::total         8964                      
system.ruby.L1Cache_Controller.I.Load    |        8724     45.72%     45.72% |       10359     54.28%    100.00%
system.ruby.L1Cache_Controller.I.Load::total        19083                      
system.ruby.L1Cache_Controller.I.Ifetch  |         100     15.77%     15.77% |         534     84.23%    100.00%
system.ruby.L1Cache_Controller.I.Ifetch::total          634                      
system.ruby.L1Cache_Controller.I.Store   |        5739     50.07%     50.07% |        5722     49.93%    100.00%
system.ruby.L1Cache_Controller.I.Store::total        11461                      
system.ruby.L1Cache_Controller.I.L1_Replacement |        8993     51.78%     51.78% |        8375     48.22%    100.00%
system.ruby.L1Cache_Controller.I.L1_Replacement::total        17368                      
system.ruby.L1Cache_Controller.S.Load    |      555624     51.88%     51.88% |      515377     48.12%    100.00%
system.ruby.L1Cache_Controller.S.Load::total      1071001                      
system.ruby.L1Cache_Controller.S.Ifetch  |    68488995     54.28%     54.28% |    57691140     45.72%    100.00%
system.ruby.L1Cache_Controller.S.Ifetch::total    126180135                      
system.ruby.L1Cache_Controller.S.Store   |       12225     54.44%     54.44% |       10230     45.56%    100.00%
system.ruby.L1Cache_Controller.S.Store::total        22455                      
system.ruby.L1Cache_Controller.S.Inv     |       11078     45.79%     45.79% |       13115     54.21%    100.00%
system.ruby.L1Cache_Controller.S.Inv::total        24193                      
system.ruby.L1Cache_Controller.S.L1_Replacement |      350718     38.81%     38.81% |      553040     61.19%    100.00%
system.ruby.L1Cache_Controller.S.L1_Replacement::total       903758                      
system.ruby.L1Cache_Controller.E.Load    |     1152084     29.74%     29.74% |     2722150     70.26%    100.00%
system.ruby.L1Cache_Controller.E.Load::total      3874234                      
system.ruby.L1Cache_Controller.E.Store   |       80726     48.37%     48.37% |       86165     51.63%    100.00%
system.ruby.L1Cache_Controller.E.Store::total       166891                      
system.ruby.L1Cache_Controller.E.Inv     |          52     59.77%     59.77% |          35     40.23%    100.00%
system.ruby.L1Cache_Controller.E.Inv::total           87                      
system.ruby.L1Cache_Controller.E.L1_Replacement |      170402     15.34%     15.34% |      940436     84.66%    100.00%
system.ruby.L1Cache_Controller.E.L1_Replacement::total      1110838                      
system.ruby.L1Cache_Controller.E.Fwd_GETX |         330     72.53%     72.53% |         125     27.47%    100.00%
system.ruby.L1Cache_Controller.E.Fwd_GETX::total          455                      
system.ruby.L1Cache_Controller.E.Fwd_GETS |         996     45.17%     45.17% |        1209     54.83%    100.00%
system.ruby.L1Cache_Controller.E.Fwd_GETS::total         2205                      
system.ruby.L1Cache_Controller.M.Load    |     4282503     49.27%     49.27% |     4409525     50.73%    100.00%
system.ruby.L1Cache_Controller.M.Load::total      8692028                      
system.ruby.L1Cache_Controller.M.Store   |     5048323     49.93%     49.93% |     5061721     50.07%    100.00%
system.ruby.L1Cache_Controller.M.Store::total     10110044                      
system.ruby.L1Cache_Controller.M.Inv     |         178     48.37%     48.37% |         190     51.63%    100.00%
system.ruby.L1Cache_Controller.M.Inv::total          368                      
system.ruby.L1Cache_Controller.M.L1_Replacement |      298492     51.95%     51.95% |      276120     48.05%    100.00%
system.ruby.L1Cache_Controller.M.L1_Replacement::total       574612                      
system.ruby.L1Cache_Controller.M.Fwd_GETX |       11918     50.65%     50.65% |       11611     49.35%    100.00%
system.ruby.L1Cache_Controller.M.Fwd_GETX::total        23529                      
system.ruby.L1Cache_Controller.M.Fwd_GETS |       13255     56.66%     56.66% |       10137     43.34%    100.00%
system.ruby.L1Cache_Controller.M.Fwd_GETS::total        23392                      
system.ruby.L1Cache_Controller.M.Fwd_GET_INSTR |           4    100.00%    100.00% |           0      0.00%    100.00%
system.ruby.L1Cache_Controller.M.Fwd_GET_INSTR::total            4                      
system.ruby.L1Cache_Controller.IS.Data_Exclusive |      252712     19.73%     19.73% |     1028027     80.27%    100.00%
system.ruby.L1Cache_Controller.IS.Data_Exclusive::total      1280739                      
system.ruby.L1Cache_Controller.IS.DataS_fromL1 |       11346     44.32%     44.32% |       14255     55.68%    100.00%
system.ruby.L1Cache_Controller.IS.DataS_fromL1::total        25601                      
system.ruby.L1Cache_Controller.IS.Data_all_Acks |      348962     38.75%     38.75% |      551527     61.25%    100.00%
system.ruby.L1Cache_Controller.IS.Data_all_Acks::total       900489                      
system.ruby.L1Cache_Controller.IM.Data   |         818     44.46%     44.46% |        1022     55.54%    100.00%
system.ruby.L1Cache_Controller.IM.Data::total         1840                      
system.ruby.L1Cache_Controller.IM.Data_all_Acks |      230354     53.43%     53.43% |      200779     46.57%    100.00%
system.ruby.L1Cache_Controller.IM.Data_all_Acks::total       431133                      
system.ruby.L1Cache_Controller.SM.Ack    |       12225     54.44%     54.44% |       10230     45.56%    100.00%
system.ruby.L1Cache_Controller.SM.Ack::total        22455                      
system.ruby.L1Cache_Controller.SM.Ack_all |       13043     53.69%     53.69% |       11252     46.31%    100.00%
system.ruby.L1Cache_Controller.SM.Ack_all::total        24295                      
system.ruby.L1Cache_Controller.M_I.Ifetch |           5     83.33%     83.33% |           1     16.67%    100.00%
system.ruby.L1Cache_Controller.M_I.Ifetch::total            6                      
system.ruby.L1Cache_Controller.M_I.WB_Ack |      468894     27.82%     27.82% |     1216556     72.18%    100.00%
system.ruby.L1Cache_Controller.M_I.WB_Ack::total      1685450                      
system.ruby.L2Cache_Controller.L1_GET_INSTR       816180      0.00%      0.00%
system.ruby.L2Cache_Controller.L1_GETS        1390821      0.00%      0.00%
system.ruby.L2Cache_Controller.L1_GETX         432975      0.00%      0.00%
system.ruby.L2Cache_Controller.L1_UPGRADE        22455      0.00%      0.00%
system.ruby.L2Cache_Controller.L1_PUTX        1685450      0.00%      0.00%
system.ruby.L2Cache_Controller.L2_Replacement        95536      0.00%      0.00%
system.ruby.L2Cache_Controller.L2_Replacement_clean        15120      0.00%      0.00%
system.ruby.L2Cache_Controller.Mem_Data        177212      0.00%      0.00%
system.ruby.L2Cache_Controller.Mem_Ack         112431      0.00%      0.00%
system.ruby.L2Cache_Controller.WB_Data          23764      0.00%      0.00%
system.ruby.L2Cache_Controller.WB_Data_clean         2205      0.00%      0.00%
system.ruby.L2Cache_Controller.Ack               1487      0.00%      0.00%
system.ruby.L2Cache_Controller.Ack_all           7462      0.00%      0.00%
system.ruby.L2Cache_Controller.Unblock          25601      0.00%      0.00%
system.ruby.L2Cache_Controller.Exclusive_Unblock      1736167      0.00%      0.00%
system.ruby.L2Cache_Controller.MEM_Inv           3550      0.00%      0.00%
system.ruby.L2Cache_Controller.NP.L1_GET_INSTR        16316      0.00%      0.00%
system.ruby.L2Cache_Controller.NP.L1_GETS        33914      0.00%      0.00%
system.ruby.L2Cache_Controller.NP.L1_GETX       126982      0.00%      0.00%
system.ruby.L2Cache_Controller.SS.L1_GET_INSTR       799834      0.00%      0.00%
system.ruby.L2Cache_Controller.SS.L1_GETS        84313      0.00%      0.00%
system.ruby.L2Cache_Controller.SS.L1_GETX         1944      0.00%      0.00%
system.ruby.L2Cache_Controller.SS.L1_UPGRADE        22455      0.00%      0.00%
system.ruby.L2Cache_Controller.SS.L2_Replacement          252      0.00%      0.00%
system.ruby.L2Cache_Controller.SS.L2_Replacement_clean         7120      0.00%      0.00%
system.ruby.L2Cache_Controller.SS.MEM_Inv            3      0.00%      0.00%
system.ruby.L2Cache_Controller.M.L1_GET_INSTR           26      0.00%      0.00%
system.ruby.L2Cache_Controller.M.L1_GETS      1246825      0.00%      0.00%
system.ruby.L2Cache_Controller.M.L1_GETX       280063      0.00%      0.00%
system.ruby.L2Cache_Controller.M.L2_Replacement        95163      0.00%      0.00%
system.ruby.L2Cache_Controller.M.L2_Replacement_clean         7896      0.00%      0.00%
system.ruby.L2Cache_Controller.M.MEM_Inv         1542      0.00%      0.00%
system.ruby.L2Cache_Controller.MT.L1_GET_INSTR            4      0.00%      0.00%
system.ruby.L2Cache_Controller.MT.L1_GETS        25597      0.00%      0.00%
system.ruby.L2Cache_Controller.MT.L1_GETX        23984      0.00%      0.00%
system.ruby.L2Cache_Controller.MT.L1_PUTX      1685450      0.00%      0.00%
system.ruby.L2Cache_Controller.MT.L2_Replacement          121      0.00%      0.00%
system.ruby.L2Cache_Controller.MT.L2_Replacement_clean          104      0.00%      0.00%
system.ruby.L2Cache_Controller.MT.MEM_Inv          230      0.00%      0.00%
system.ruby.L2Cache_Controller.M_I.Mem_Ack       112431      0.00%      0.00%
system.ruby.L2Cache_Controller.M_I.MEM_Inv         1542      0.00%      0.00%
system.ruby.L2Cache_Controller.MT_I.WB_Data          308      0.00%      0.00%
system.ruby.L2Cache_Controller.MT_I.Ack_all           43      0.00%      0.00%
system.ruby.L2Cache_Controller.MT_I.MEM_Inv          230      0.00%      0.00%
system.ruby.L2Cache_Controller.MCT_I.WB_Data           60      0.00%      0.00%
system.ruby.L2Cache_Controller.MCT_I.Ack_all           44      0.00%      0.00%
system.ruby.L2Cache_Controller.I_I.Ack           1232      0.00%      0.00%
system.ruby.L2Cache_Controller.I_I.Ack_all         7120      0.00%      0.00%
system.ruby.L2Cache_Controller.S_I.Ack            255      0.00%      0.00%
system.ruby.L2Cache_Controller.S_I.Ack_all          255      0.00%      0.00%
system.ruby.L2Cache_Controller.S_I.MEM_Inv            3      0.00%      0.00%
system.ruby.L2Cache_Controller.ISS.Mem_Data        33914      0.00%      0.00%
system.ruby.L2Cache_Controller.IS.Mem_Data        16316      0.00%      0.00%
system.ruby.L2Cache_Controller.IM.Mem_Data       126982      0.00%      0.00%
system.ruby.L2Cache_Controller.SS_MB.L1_GETS          122      0.00%      0.00%
system.ruby.L2Cache_Controller.SS_MB.Exclusive_Unblock        24399      0.00%      0.00%
system.ruby.L2Cache_Controller.MT_MB.L1_GETS           50      0.00%      0.00%
system.ruby.L2Cache_Controller.MT_MB.L1_GETX            2      0.00%      0.00%
system.ruby.L2Cache_Controller.MT_MB.Exclusive_Unblock      1711768      0.00%      0.00%
system.ruby.L2Cache_Controller.MT_IIB.WB_Data        23385      0.00%      0.00%
system.ruby.L2Cache_Controller.MT_IIB.WB_Data_clean         2205      0.00%      0.00%
system.ruby.L2Cache_Controller.MT_IIB.Unblock           11      0.00%      0.00%
system.ruby.L2Cache_Controller.MT_IB.WB_Data           11      0.00%      0.00%
system.ruby.L2Cache_Controller.MT_SB.Unblock        25590      0.00%      0.00%

---------- End Simulation Statistics   ----------
