
---------- Begin Simulation Statistics ----------
sim_seconds                                  0.270605                      
sim_ticks                                270604702500                      
final_tick                               270604702500                      
sim_freq                                 1000000000000                      
host_inst_rate                                 850262                      
host_op_rate                                   850263                      
host_tick_rate                             1189410021                      
host_mem_usage                                 267428                      
host_seconds                                   227.51                      
sim_insts                                   193444518                      
sim_ops                                     193444756                      
system.voltage_domain.voltage                       1                      
system.clk_domain.clock                          1000                      
system.physmem.pwrStateResidencyTicks::UNDEFINED 270604702500                      
system.physmem.bytes_read::cpu.inst            230208                      
system.physmem.bytes_read::cpu.data            100864                      
system.physmem.bytes_read::total               331072                      
system.physmem.bytes_inst_read::cpu.inst       230208                      
system.physmem.bytes_inst_read::total          230208                      
system.physmem.num_reads::cpu.inst               3597                      
system.physmem.num_reads::cpu.data               1576                      
system.physmem.num_reads::total                  5173                      
system.physmem.bw_read::cpu.inst               850717                      
system.physmem.bw_read::cpu.data               372736                      
system.physmem.bw_read::total                 1223453                      
system.physmem.bw_inst_read::cpu.inst          850717                      
system.physmem.bw_inst_read::total             850717                      
system.physmem.bw_total::cpu.inst              850717                      
system.physmem.bw_total::cpu.data              372736                      
system.physmem.bw_total::total                1223453                      
system.pwrStateResidencyTicks::UNDEFINED 270604702500                      
system.cpu_clk_domain.clock                       500                      
system.cpu.workload.numSyscalls                   401                      
system.cpu.pwrStateResidencyTicks::ON    270604702500                      
system.cpu.numCycles                        541209405                      
system.cpu.numWorkItemsStarted                      0                      
system.cpu.numWorkItemsCompleted                    0                      
system.cpu.committedInsts                   193444518                      
system.cpu.committedOps                     193444756                      
system.cpu.num_int_alu_accesses             167974806                      
system.cpu.num_fp_alu_accesses                1970372                      
system.cpu.num_func_calls                     1957920                      
system.cpu.num_conditional_control_insts      8665106                      
system.cpu.num_int_insts                    167974806                      
system.cpu.num_fp_insts                       1970372                      
system.cpu.num_int_register_reads           352617941                      
system.cpu.num_int_register_writes          163060123                      
system.cpu.num_fp_register_reads              3181089                      
system.cpu.num_fp_register_writes             2974850                      
system.cpu.num_mem_refs                      76733958                      
system.cpu.num_load_insts                    57735091                      
system.cpu.num_store_insts                   18998867                      
system.cpu.num_idle_cycles                          0                      
system.cpu.num_busy_cycles                  541209405                      
system.cpu.not_idle_fraction                        1                      
system.cpu.idle_fraction                            0                      
system.cpu.Branches                          15132745                      
system.cpu.op_class::No_OpClass              13329871      6.89%      6.89%
system.cpu.op_class::IntAlu                 102506896     52.99%     59.88%
system.cpu.op_class::IntMult                        0      0.00%     59.88%
system.cpu.op_class::IntDiv                         0      0.00%     59.88%
system.cpu.op_class::FloatAdd                  875036      0.45%     60.33%
system.cpu.op_class::FloatCmp                       0      0.00%     60.33%
system.cpu.op_class::FloatCvt                       0      0.00%     60.33%
system.cpu.op_class::FloatMult                      0      0.00%     60.33%
system.cpu.op_class::FloatMultAcc                   0      0.00%     60.33%
system.cpu.op_class::FloatDiv                       0      0.00%     60.33%
system.cpu.op_class::FloatMisc                      0      0.00%     60.33%
system.cpu.op_class::FloatSqrt                      0      0.00%     60.33%
system.cpu.op_class::SimdAdd                        0      0.00%     60.33%
system.cpu.op_class::SimdAddAcc                     0      0.00%     60.33%
system.cpu.op_class::SimdAlu                        0      0.00%     60.33%
system.cpu.op_class::SimdCmp                        0      0.00%     60.33%
system.cpu.op_class::SimdCvt                        0      0.00%     60.33%
system.cpu.op_class::SimdMisc                       0      0.00%     60.33%
system.cpu.op_class::SimdMult                       0      0.00%     60.33%
system.cpu.op_class::SimdMultAcc                    0      0.00%     60.33%
system.cpu.op_class::SimdShift                      0      0.00%     60.33%
system.cpu.op_class::SimdShiftAcc                   0      0.00%     60.33%
system.cpu.op_class::SimdSqrt                       0      0.00%     60.33%
system.cpu.op_class::SimdFloatAdd                   0      0.00%     60.33%
system.cpu.op_class::SimdFloatAlu                   0      0.00%     60.33%
system.cpu.op_class::SimdFloatCmp                   0      0.00%     60.33%
system.cpu.op_class::SimdFloatCvt                   0      0.00%     60.33%
system.cpu.op_class::SimdFloatDiv                   0      0.00%     60.33%
system.cpu.op_class::SimdFloatMisc                  0      0.00%     60.33%
system.cpu.op_class::SimdFloatMult                  0      0.00%     60.33%
system.cpu.op_class::SimdFloatMultAcc               0      0.00%     60.33%
system.cpu.op_class::SimdFloatSqrt                  0      0.00%     60.33%
system.cpu.op_class::MemRead                 56837780     29.38%     89.71%
system.cpu.op_class::MemWrite                18800854      9.72%     99.43%
system.cpu.op_class::FloatMemRead              897323      0.46%     99.90%
system.cpu.op_class::FloatMemWrite             198013      0.10%    100.00%
system.cpu.op_class::IprAccess                      0      0.00%    100.00%
system.cpu.op_class::InstPrefetch                   0      0.00%    100.00%
system.cpu.op_class::total                  193445773                      
system.cpu.dcache.tags.pwrStateResidencyTicks::UNDEFINED 270604702500                      
system.cpu.dcache.tags.replacements                 2                      
system.cpu.dcache.tags.tagsinuse          1237.152973                      
system.cpu.dcache.tags.total_refs            76732337                      
system.cpu.dcache.tags.sampled_refs              1576                      
system.cpu.dcache.tags.avg_refs          48688.031091                      
system.cpu.dcache.tags.warmup_cycle                 0                      
system.cpu.dcache.tags.occ_blocks::cpu.data  1237.152973                      
system.cpu.dcache.tags.occ_percent::cpu.data     0.302039                      
system.cpu.dcache.tags.occ_percent::total     0.302039                      
system.cpu.dcache.tags.occ_task_id_blocks::1024         1574                      
system.cpu.dcache.tags.age_task_id_blocks_1024::0            5                      
system.cpu.dcache.tags.age_task_id_blocks_1024::1           22                      
system.cpu.dcache.tags.age_task_id_blocks_1024::2           39                      
system.cpu.dcache.tags.age_task_id_blocks_1024::3          271                      
system.cpu.dcache.tags.age_task_id_blocks_1024::4         1237                      
system.cpu.dcache.tags.occ_task_id_percent::1024     0.384277                      
system.cpu.dcache.tags.tag_accesses         153469402                      
system.cpu.dcache.tags.data_accesses        153469402                      
system.cpu.dcache.pwrStateResidencyTicks::UNDEFINED 270604702500                      
system.cpu.dcache.ReadReq_hits::cpu.data     57734570                      
system.cpu.dcache.ReadReq_hits::total        57734570                      
system.cpu.dcache.WriteReq_hits::cpu.data     18975362                      
system.cpu.dcache.WriteReq_hits::total       18975362                      
system.cpu.dcache.SwapReq_hits::cpu.data        22405                      
system.cpu.dcache.SwapReq_hits::total           22405                      
system.cpu.dcache.demand_hits::cpu.data      76709932                      
system.cpu.dcache.demand_hits::total         76709932                      
system.cpu.dcache.overall_hits::cpu.data     76709932                      
system.cpu.dcache.overall_hits::total        76709932                      
system.cpu.dcache.ReadReq_misses::cpu.data          498                      
system.cpu.dcache.ReadReq_misses::total           498                      
system.cpu.dcache.WriteReq_misses::cpu.data         1077                      
system.cpu.dcache.WriteReq_misses::total         1077                      
system.cpu.dcache.SwapReq_misses::cpu.data            1                      
system.cpu.dcache.SwapReq_misses::total             1                      
system.cpu.dcache.demand_misses::cpu.data         1575                      
system.cpu.dcache.demand_misses::total           1575                      
system.cpu.dcache.overall_misses::cpu.data         1575                      
system.cpu.dcache.overall_misses::total          1575                      
system.cpu.dcache.ReadReq_miss_latency::cpu.data     31375500                      
system.cpu.dcache.ReadReq_miss_latency::total     31375500                      
system.cpu.dcache.WriteReq_miss_latency::cpu.data     67852000                      
system.cpu.dcache.WriteReq_miss_latency::total     67852000                      
system.cpu.dcache.SwapReq_miss_latency::cpu.data        63000                      
system.cpu.dcache.SwapReq_miss_latency::total        63000                      
system.cpu.dcache.demand_miss_latency::cpu.data     99227500                      
system.cpu.dcache.demand_miss_latency::total     99227500                      
system.cpu.dcache.overall_miss_latency::cpu.data     99227500                      
system.cpu.dcache.overall_miss_latency::total     99227500                      
system.cpu.dcache.ReadReq_accesses::cpu.data     57735068                      
system.cpu.dcache.ReadReq_accesses::total     57735068                      
system.cpu.dcache.WriteReq_accesses::cpu.data     18976439                      
system.cpu.dcache.WriteReq_accesses::total     18976439                      
system.cpu.dcache.SwapReq_accesses::cpu.data        22406                      
system.cpu.dcache.SwapReq_accesses::total        22406                      
system.cpu.dcache.demand_accesses::cpu.data     76711507                      
system.cpu.dcache.demand_accesses::total     76711507                      
system.cpu.dcache.overall_accesses::cpu.data     76711507                      
system.cpu.dcache.overall_accesses::total     76711507                      
system.cpu.dcache.ReadReq_miss_rate::cpu.data     0.000009                      
system.cpu.dcache.ReadReq_miss_rate::total     0.000009                      
system.cpu.dcache.WriteReq_miss_rate::cpu.data     0.000057                      
system.cpu.dcache.WriteReq_miss_rate::total     0.000057                      
system.cpu.dcache.SwapReq_miss_rate::cpu.data     0.000045                      
system.cpu.dcache.SwapReq_miss_rate::total     0.000045                      
system.cpu.dcache.demand_miss_rate::cpu.data     0.000021                      
system.cpu.dcache.demand_miss_rate::total     0.000021                      
system.cpu.dcache.overall_miss_rate::cpu.data     0.000021                      
system.cpu.dcache.overall_miss_rate::total     0.000021                      
system.cpu.dcache.ReadReq_avg_miss_latency::cpu.data 63003.012048                      
system.cpu.dcache.ReadReq_avg_miss_latency::total 63003.012048                      
system.cpu.dcache.WriteReq_avg_miss_latency::cpu.data 63000.928505                      
system.cpu.dcache.WriteReq_avg_miss_latency::total 63000.928505                      
system.cpu.dcache.SwapReq_avg_miss_latency::cpu.data        63000                      
system.cpu.dcache.SwapReq_avg_miss_latency::total        63000                      
system.cpu.dcache.demand_avg_miss_latency::cpu.data 63001.587302                      
system.cpu.dcache.demand_avg_miss_latency::total 63001.587302                      
system.cpu.dcache.overall_avg_miss_latency::cpu.data 63001.587302                      
system.cpu.dcache.overall_avg_miss_latency::total 63001.587302                      
system.cpu.dcache.blocked_cycles::no_mshrs            0                      
system.cpu.dcache.blocked_cycles::no_targets            0                      
system.cpu.dcache.blocked::no_mshrs                 0                      
system.cpu.dcache.blocked::no_targets               0                      
system.cpu.dcache.avg_blocked_cycles::no_mshrs          nan                      
system.cpu.dcache.avg_blocked_cycles::no_targets          nan                      
system.cpu.dcache.writebacks::writebacks            2                      
system.cpu.dcache.writebacks::total                 2                      
system.cpu.dcache.ReadReq_mshr_misses::cpu.data          498                      
system.cpu.dcache.ReadReq_mshr_misses::total          498                      
system.cpu.dcache.WriteReq_mshr_misses::cpu.data         1077                      
system.cpu.dcache.WriteReq_mshr_misses::total         1077                      
system.cpu.dcache.SwapReq_mshr_misses::cpu.data            1                      
system.cpu.dcache.SwapReq_mshr_misses::total            1                      
system.cpu.dcache.demand_mshr_misses::cpu.data         1575                      
system.cpu.dcache.demand_mshr_misses::total         1575                      
system.cpu.dcache.overall_mshr_misses::cpu.data         1575                      
system.cpu.dcache.overall_mshr_misses::total         1575                      
system.cpu.dcache.ReadReq_mshr_miss_latency::cpu.data     30877500                      
system.cpu.dcache.ReadReq_mshr_miss_latency::total     30877500                      
system.cpu.dcache.WriteReq_mshr_miss_latency::cpu.data     66775000                      
system.cpu.dcache.WriteReq_mshr_miss_latency::total     66775000                      
system.cpu.dcache.SwapReq_mshr_miss_latency::cpu.data        62000                      
system.cpu.dcache.SwapReq_mshr_miss_latency::total        62000                      
system.cpu.dcache.demand_mshr_miss_latency::cpu.data     97652500                      
system.cpu.dcache.demand_mshr_miss_latency::total     97652500                      
system.cpu.dcache.overall_mshr_miss_latency::cpu.data     97652500                      
system.cpu.dcache.overall_mshr_miss_latency::total     97652500                      
system.cpu.dcache.ReadReq_mshr_miss_rate::cpu.data     0.000009                      
system.cpu.dcache.ReadReq_mshr_miss_rate::total     0.000009                      
system.cpu.dcache.WriteReq_mshr_miss_rate::cpu.data     0.000057                      
system.cpu.dcache.WriteReq_mshr_miss_rate::total     0.000057                      
system.cpu.dcache.SwapReq_mshr_miss_rate::cpu.data     0.000045                      
system.cpu.dcache.SwapReq_mshr_miss_rate::total     0.000045                      
system.cpu.dcache.demand_mshr_miss_rate::cpu.data     0.000021                      
system.cpu.dcache.demand_mshr_miss_rate::total     0.000021                      
system.cpu.dcache.overall_mshr_miss_rate::cpu.data     0.000021                      
system.cpu.dcache.overall_mshr_miss_rate::total     0.000021                      
system.cpu.dcache.ReadReq_avg_mshr_miss_latency::cpu.data 62003.012048                      
system.cpu.dcache.ReadReq_avg_mshr_miss_latency::total 62003.012048                      
system.cpu.dcache.WriteReq_avg_mshr_miss_latency::cpu.data 62000.928505                      
system.cpu.dcache.WriteReq_avg_mshr_miss_latency::total 62000.928505                      
system.cpu.dcache.SwapReq_avg_mshr_miss_latency::cpu.data        62000                      
system.cpu.dcache.SwapReq_avg_mshr_miss_latency::total        62000                      
system.cpu.dcache.demand_avg_mshr_miss_latency::cpu.data 62001.587302                      
system.cpu.dcache.demand_avg_mshr_miss_latency::total 62001.587302                      
system.cpu.dcache.overall_avg_mshr_miss_latency::cpu.data 62001.587302                      
system.cpu.dcache.overall_avg_mshr_miss_latency::total 62001.587302                      
system.cpu.icache.tags.pwrStateResidencyTicks::UNDEFINED 270604702500                      
system.cpu.icache.tags.replacements             10362                      
system.cpu.icache.tags.tagsinuse          1591.520958                      
system.cpu.icache.tags.total_refs           193433248                      
system.cpu.icache.tags.sampled_refs             12288                      
system.cpu.icache.tags.avg_refs          15741.638021                      
system.cpu.icache.tags.warmup_cycle                 0                      
system.cpu.icache.tags.occ_blocks::cpu.inst  1591.520958                      
system.cpu.icache.tags.occ_percent::cpu.inst     0.777110                      
system.cpu.icache.tags.occ_percent::total     0.777110                      
system.cpu.icache.tags.occ_task_id_blocks::1024         1926                      
system.cpu.icache.tags.age_task_id_blocks_1024::0           51                      
system.cpu.icache.tags.age_task_id_blocks_1024::1           50                      
system.cpu.icache.tags.age_task_id_blocks_1024::2          624                      
system.cpu.icache.tags.age_task_id_blocks_1024::3          514                      
system.cpu.icache.tags.age_task_id_blocks_1024::4          687                      
system.cpu.icache.tags.occ_task_id_percent::1024     0.940430                      
system.cpu.icache.tags.tag_accesses         386903360                      
system.cpu.icache.tags.data_accesses        386903360                      
system.cpu.icache.pwrStateResidencyTicks::UNDEFINED 270604702500                      
system.cpu.icache.ReadReq_hits::cpu.inst    193433248                      
system.cpu.icache.ReadReq_hits::total       193433248                      
system.cpu.icache.demand_hits::cpu.inst     193433248                      
system.cpu.icache.demand_hits::total        193433248                      
system.cpu.icache.overall_hits::cpu.inst    193433248                      
system.cpu.icache.overall_hits::total       193433248                      
system.cpu.icache.ReadReq_misses::cpu.inst        12288                      
system.cpu.icache.ReadReq_misses::total         12288                      
system.cpu.icache.demand_misses::cpu.inst        12288                      
system.cpu.icache.demand_misses::total          12288                      
system.cpu.icache.overall_misses::cpu.inst        12288                      
system.cpu.icache.overall_misses::total         12288                      
system.cpu.icache.ReadReq_miss_latency::cpu.inst    339828000                      
system.cpu.icache.ReadReq_miss_latency::total    339828000                      
system.cpu.icache.demand_miss_latency::cpu.inst    339828000                      
system.cpu.icache.demand_miss_latency::total    339828000                      
system.cpu.icache.overall_miss_latency::cpu.inst    339828000                      
system.cpu.icache.overall_miss_latency::total    339828000                      
system.cpu.icache.ReadReq_accesses::cpu.inst    193445536                      
system.cpu.icache.ReadReq_accesses::total    193445536                      
system.cpu.icache.demand_accesses::cpu.inst    193445536                      
system.cpu.icache.demand_accesses::total    193445536                      
system.cpu.icache.overall_accesses::cpu.inst    193445536                      
system.cpu.icache.overall_accesses::total    193445536                      
system.cpu.icache.ReadReq_miss_rate::cpu.inst     0.000064                      
system.cpu.icache.ReadReq_miss_rate::total     0.000064                      
system.cpu.icache.demand_miss_rate::cpu.inst     0.000064                      
system.cpu.icache.demand_miss_rate::total     0.000064                      
system.cpu.icache.overall_miss_rate::cpu.inst     0.000064                      
system.cpu.icache.overall_miss_rate::total     0.000064                      
system.cpu.icache.ReadReq_avg_miss_latency::cpu.inst 27655.273438                      
system.cpu.icache.ReadReq_avg_miss_latency::total 27655.273438                      
system.cpu.icache.demand_avg_miss_latency::cpu.inst 27655.273438                      
system.cpu.icache.demand_avg_miss_latency::total 27655.273438                      
system.cpu.icache.overall_avg_miss_latency::cpu.inst 27655.273438                      
system.cpu.icache.overall_avg_miss_latency::total 27655.273438                      
system.cpu.icache.blocked_cycles::no_mshrs            0                      
system.cpu.icache.blocked_cycles::no_targets            0                      
system.cpu.icache.blocked::no_mshrs                 0                      
system.cpu.icache.blocked::no_targets               0                      
system.cpu.icache.avg_blocked_cycles::no_mshrs          nan                      
system.cpu.icache.avg_blocked_cycles::no_targets          nan                      
system.cpu.icache.writebacks::writebacks        10362                      
system.cpu.icache.writebacks::total             10362                      
system.cpu.icache.ReadReq_mshr_misses::cpu.inst        12288                      
system.cpu.icache.ReadReq_mshr_misses::total        12288                      
system.cpu.icache.demand_mshr_misses::cpu.inst        12288                      
system.cpu.icache.demand_mshr_misses::total        12288                      
system.cpu.icache.overall_mshr_misses::cpu.inst        12288                      
system.cpu.icache.overall_mshr_misses::total        12288                      
system.cpu.icache.ReadReq_mshr_miss_latency::cpu.inst    327540000                      
system.cpu.icache.ReadReq_mshr_miss_latency::total    327540000                      
system.cpu.icache.demand_mshr_miss_latency::cpu.inst    327540000                      
system.cpu.icache.demand_mshr_miss_latency::total    327540000                      
system.cpu.icache.overall_mshr_miss_latency::cpu.inst    327540000                      
system.cpu.icache.overall_mshr_miss_latency::total    327540000                      
system.cpu.icache.ReadReq_mshr_miss_rate::cpu.inst     0.000064                      
system.cpu.icache.ReadReq_mshr_miss_rate::total     0.000064                      
system.cpu.icache.demand_mshr_miss_rate::cpu.inst     0.000064                      
system.cpu.icache.demand_mshr_miss_rate::total     0.000064                      
system.cpu.icache.overall_mshr_miss_rate::cpu.inst     0.000064                      
system.cpu.icache.overall_mshr_miss_rate::total     0.000064                      
system.cpu.icache.ReadReq_avg_mshr_miss_latency::cpu.inst 26655.273438                      
system.cpu.icache.ReadReq_avg_mshr_miss_latency::total 26655.273438                      
system.cpu.icache.demand_avg_mshr_miss_latency::cpu.inst 26655.273438                      
system.cpu.icache.demand_avg_mshr_miss_latency::total 26655.273438                      
system.cpu.icache.overall_avg_mshr_miss_latency::cpu.inst 26655.273438                      
system.cpu.icache.overall_avg_mshr_miss_latency::total 26655.273438                      
system.cpu.l2cache.tags.pwrStateResidencyTicks::UNDEFINED 270604702500                      
system.cpu.l2cache.tags.replacements                0                      
system.cpu.l2cache.tags.tagsinuse         3512.345683                      
system.cpu.l2cache.tags.total_refs              19055                      
system.cpu.l2cache.tags.sampled_refs             5173                      
system.cpu.l2cache.tags.avg_refs             3.683549                      
system.cpu.l2cache.tags.warmup_cycle                0                      
system.cpu.l2cache.tags.occ_blocks::cpu.inst  2275.192191                      
system.cpu.l2cache.tags.occ_blocks::cpu.data  1237.153491                      
system.cpu.l2cache.tags.occ_percent::cpu.inst     0.069433                      
system.cpu.l2cache.tags.occ_percent::cpu.data     0.037755                      
system.cpu.l2cache.tags.occ_percent::total     0.107188                      
system.cpu.l2cache.tags.occ_task_id_blocks::1024         5173                      
system.cpu.l2cache.tags.age_task_id_blocks_1024::0           44                      
system.cpu.l2cache.tags.age_task_id_blocks_1024::1           54                      
system.cpu.l2cache.tags.age_task_id_blocks_1024::2          719                      
system.cpu.l2cache.tags.age_task_id_blocks_1024::3          833                      
system.cpu.l2cache.tags.age_task_id_blocks_1024::4         3523                      
system.cpu.l2cache.tags.occ_task_id_percent::1024     0.157867                      
system.cpu.l2cache.tags.tag_accesses           198997                      
system.cpu.l2cache.tags.data_accesses          198997                      
system.cpu.l2cache.pwrStateResidencyTicks::UNDEFINED 270604702500                      
system.cpu.l2cache.WritebackDirty_hits::writebacks            2                      
system.cpu.l2cache.WritebackDirty_hits::total            2                      
system.cpu.l2cache.WritebackClean_hits::writebacks        10362                      
system.cpu.l2cache.WritebackClean_hits::total        10362                      
system.cpu.l2cache.ReadCleanReq_hits::cpu.inst         8691                      
system.cpu.l2cache.ReadCleanReq_hits::total         8691                      
system.cpu.l2cache.demand_hits::cpu.inst         8691                      
system.cpu.l2cache.demand_hits::total            8691                      
system.cpu.l2cache.overall_hits::cpu.inst         8691                      
system.cpu.l2cache.overall_hits::total           8691                      
system.cpu.l2cache.ReadExReq_misses::cpu.data         1078                      
system.cpu.l2cache.ReadExReq_misses::total         1078                      
system.cpu.l2cache.ReadCleanReq_misses::cpu.inst         3597                      
system.cpu.l2cache.ReadCleanReq_misses::total         3597                      
system.cpu.l2cache.ReadSharedReq_misses::cpu.data          498                      
system.cpu.l2cache.ReadSharedReq_misses::total          498                      
system.cpu.l2cache.demand_misses::cpu.inst         3597                      
system.cpu.l2cache.demand_misses::cpu.data         1576                      
system.cpu.l2cache.demand_misses::total          5173                      
system.cpu.l2cache.overall_misses::cpu.inst         3597                      
system.cpu.l2cache.overall_misses::cpu.data         1576                      
system.cpu.l2cache.overall_misses::total         5173                      
system.cpu.l2cache.ReadExReq_miss_latency::cpu.data     65220000                      
system.cpu.l2cache.ReadExReq_miss_latency::total     65220000                      
system.cpu.l2cache.ReadCleanReq_miss_latency::cpu.inst    217646500                      
system.cpu.l2cache.ReadCleanReq_miss_latency::total    217646500                      
system.cpu.l2cache.ReadSharedReq_miss_latency::cpu.data     30130000                      
system.cpu.l2cache.ReadSharedReq_miss_latency::total     30130000                      
system.cpu.l2cache.demand_miss_latency::cpu.inst    217646500                      
system.cpu.l2cache.demand_miss_latency::cpu.data     95350000                      
system.cpu.l2cache.demand_miss_latency::total    312996500                      
system.cpu.l2cache.overall_miss_latency::cpu.inst    217646500                      
system.cpu.l2cache.overall_miss_latency::cpu.data     95350000                      
system.cpu.l2cache.overall_miss_latency::total    312996500                      
system.cpu.l2cache.WritebackDirty_accesses::writebacks            2                      
system.cpu.l2cache.WritebackDirty_accesses::total            2                      
system.cpu.l2cache.WritebackClean_accesses::writebacks        10362                      
system.cpu.l2cache.WritebackClean_accesses::total        10362                      
system.cpu.l2cache.ReadExReq_accesses::cpu.data         1078                      
system.cpu.l2cache.ReadExReq_accesses::total         1078                      
system.cpu.l2cache.ReadCleanReq_accesses::cpu.inst        12288                      
system.cpu.l2cache.ReadCleanReq_accesses::total        12288                      
system.cpu.l2cache.ReadSharedReq_accesses::cpu.data          498                      
system.cpu.l2cache.ReadSharedReq_accesses::total          498                      
system.cpu.l2cache.demand_accesses::cpu.inst        12288                      
system.cpu.l2cache.demand_accesses::cpu.data         1576                      
system.cpu.l2cache.demand_accesses::total        13864                      
system.cpu.l2cache.overall_accesses::cpu.inst        12288                      
system.cpu.l2cache.overall_accesses::cpu.data         1576                      
system.cpu.l2cache.overall_accesses::total        13864                      
system.cpu.l2cache.ReadExReq_miss_rate::cpu.data            1                      
system.cpu.l2cache.ReadExReq_miss_rate::total            1                      
system.cpu.l2cache.ReadCleanReq_miss_rate::cpu.inst     0.292725                      
system.cpu.l2cache.ReadCleanReq_miss_rate::total     0.292725                      
system.cpu.l2cache.ReadSharedReq_miss_rate::cpu.data            1                      
system.cpu.l2cache.ReadSharedReq_miss_rate::total            1                      
system.cpu.l2cache.demand_miss_rate::cpu.inst     0.292725                      
system.cpu.l2cache.demand_miss_rate::cpu.data            1                      
system.cpu.l2cache.demand_miss_rate::total     0.373125                      
system.cpu.l2cache.overall_miss_rate::cpu.inst     0.292725                      
system.cpu.l2cache.overall_miss_rate::cpu.data            1                      
system.cpu.l2cache.overall_miss_rate::total     0.373125                      
system.cpu.l2cache.ReadExReq_avg_miss_latency::cpu.data 60500.927644                      
system.cpu.l2cache.ReadExReq_avg_miss_latency::total 60500.927644                      
system.cpu.l2cache.ReadCleanReq_avg_miss_latency::cpu.inst 60507.784265                      
system.cpu.l2cache.ReadCleanReq_avg_miss_latency::total 60507.784265                      
system.cpu.l2cache.ReadSharedReq_avg_miss_latency::cpu.data 60502.008032                      
system.cpu.l2cache.ReadSharedReq_avg_miss_latency::total 60502.008032                      
system.cpu.l2cache.demand_avg_miss_latency::cpu.inst 60507.784265                      
system.cpu.l2cache.demand_avg_miss_latency::cpu.data 60501.269036                      
system.cpu.l2cache.demand_avg_miss_latency::total 60505.799343                      
system.cpu.l2cache.overall_avg_miss_latency::cpu.inst 60507.784265                      
system.cpu.l2cache.overall_avg_miss_latency::cpu.data 60501.269036                      
system.cpu.l2cache.overall_avg_miss_latency::total 60505.799343                      
system.cpu.l2cache.blocked_cycles::no_mshrs            0                      
system.cpu.l2cache.blocked_cycles::no_targets            0                      
system.cpu.l2cache.blocked::no_mshrs                0                      
system.cpu.l2cache.blocked::no_targets              0                      
system.cpu.l2cache.avg_blocked_cycles::no_mshrs          nan                      
system.cpu.l2cache.avg_blocked_cycles::no_targets          nan                      
system.cpu.l2cache.ReadExReq_mshr_misses::cpu.data         1078                      
system.cpu.l2cache.ReadExReq_mshr_misses::total         1078                      
system.cpu.l2cache.ReadCleanReq_mshr_misses::cpu.inst         3597                      
system.cpu.l2cache.ReadCleanReq_mshr_misses::total         3597                      
system.cpu.l2cache.ReadSharedReq_mshr_misses::cpu.data          498                      
system.cpu.l2cache.ReadSharedReq_mshr_misses::total          498                      
system.cpu.l2cache.demand_mshr_misses::cpu.inst         3597                      
system.cpu.l2cache.demand_mshr_misses::cpu.data         1576                      
system.cpu.l2cache.demand_mshr_misses::total         5173                      
system.cpu.l2cache.overall_mshr_misses::cpu.inst         3597                      
system.cpu.l2cache.overall_mshr_misses::cpu.data         1576                      
system.cpu.l2cache.overall_mshr_misses::total         5173                      
system.cpu.l2cache.ReadExReq_mshr_miss_latency::cpu.data     54440000                      
system.cpu.l2cache.ReadExReq_mshr_miss_latency::total     54440000                      
system.cpu.l2cache.ReadCleanReq_mshr_miss_latency::cpu.inst    181676500                      
system.cpu.l2cache.ReadCleanReq_mshr_miss_latency::total    181676500                      
system.cpu.l2cache.ReadSharedReq_mshr_miss_latency::cpu.data     25150000                      
system.cpu.l2cache.ReadSharedReq_mshr_miss_latency::total     25150000                      
system.cpu.l2cache.demand_mshr_miss_latency::cpu.inst    181676500                      
system.cpu.l2cache.demand_mshr_miss_latency::cpu.data     79590000                      
system.cpu.l2cache.demand_mshr_miss_latency::total    261266500                      
system.cpu.l2cache.overall_mshr_miss_latency::cpu.inst    181676500                      
system.cpu.l2cache.overall_mshr_miss_latency::cpu.data     79590000                      
system.cpu.l2cache.overall_mshr_miss_latency::total    261266500                      
system.cpu.l2cache.ReadExReq_mshr_miss_rate::cpu.data            1                      
system.cpu.l2cache.ReadExReq_mshr_miss_rate::total            1                      
system.cpu.l2cache.ReadCleanReq_mshr_miss_rate::cpu.inst     0.292725                      
system.cpu.l2cache.ReadCleanReq_mshr_miss_rate::total     0.292725                      
system.cpu.l2cache.ReadSharedReq_mshr_miss_rate::cpu.data            1                      
system.cpu.l2cache.ReadSharedReq_mshr_miss_rate::total            1                      
system.cpu.l2cache.demand_mshr_miss_rate::cpu.inst     0.292725                      
system.cpu.l2cache.demand_mshr_miss_rate::cpu.data            1                      
system.cpu.l2cache.demand_mshr_miss_rate::total     0.373125                      
system.cpu.l2cache.overall_mshr_miss_rate::cpu.inst     0.292725                      
system.cpu.l2cache.overall_mshr_miss_rate::cpu.data            1                      
system.cpu.l2cache.overall_mshr_miss_rate::total     0.373125                      
system.cpu.l2cache.ReadExReq_avg_mshr_miss_latency::cpu.data 50500.927644                      
system.cpu.l2cache.ReadExReq_avg_mshr_miss_latency::total 50500.927644                      
system.cpu.l2cache.ReadCleanReq_avg_mshr_miss_latency::cpu.inst 50507.784265                      
system.cpu.l2cache.ReadCleanReq_avg_mshr_miss_latency::total 50507.784265                      
system.cpu.l2cache.ReadSharedReq_avg_mshr_miss_latency::cpu.data 50502.008032                      
system.cpu.l2cache.ReadSharedReq_avg_mshr_miss_latency::total 50502.008032                      
system.cpu.l2cache.demand_avg_mshr_miss_latency::cpu.inst 50507.784265                      
system.cpu.l2cache.demand_avg_mshr_miss_latency::cpu.data 50501.269036                      
system.cpu.l2cache.demand_avg_mshr_miss_latency::total 50505.799343                      
system.cpu.l2cache.overall_avg_mshr_miss_latency::cpu.inst 50507.784265                      
system.cpu.l2cache.overall_avg_mshr_miss_latency::cpu.data 50501.269036                      
system.cpu.l2cache.overall_avg_mshr_miss_latency::total 50505.799343                      
system.cpu.toL2Bus.snoop_filter.tot_requests        24228                      
system.cpu.toL2Bus.snoop_filter.hit_single_requests        10365                      
system.cpu.toL2Bus.snoop_filter.hit_multi_requests            0                      
system.cpu.toL2Bus.snoop_filter.tot_snoops            0                      
system.cpu.toL2Bus.snoop_filter.hit_single_snoops            0                      
system.cpu.toL2Bus.snoop_filter.hit_multi_snoops            0                      
system.cpu.toL2Bus.pwrStateResidencyTicks::UNDEFINED 270604702500                      
system.cpu.toL2Bus.trans_dist::ReadResp         12786                      
system.cpu.toL2Bus.trans_dist::WritebackDirty            2                      
system.cpu.toL2Bus.trans_dist::WritebackClean        10362                      
system.cpu.toL2Bus.trans_dist::ReadExReq         1078                      
system.cpu.toL2Bus.trans_dist::ReadExResp         1078                      
system.cpu.toL2Bus.trans_dist::ReadCleanReq        12288                      
system.cpu.toL2Bus.trans_dist::ReadSharedReq          498                      
system.cpu.toL2Bus.pkt_count_system.cpu.icache.mem_side::system.cpu.l2cache.cpu_side        34938                      
system.cpu.toL2Bus.pkt_count_system.cpu.dcache.mem_side::system.cpu.l2cache.cpu_side         3154                      
system.cpu.toL2Bus.pkt_count::total             38092                      
system.cpu.toL2Bus.pkt_size_system.cpu.icache.mem_side::system.cpu.l2cache.cpu_side      1449600                      
system.cpu.toL2Bus.pkt_size_system.cpu.dcache.mem_side::system.cpu.l2cache.cpu_side       100992                      
system.cpu.toL2Bus.pkt_size::total            1550592                      
system.cpu.toL2Bus.snoops                           0                      
system.cpu.toL2Bus.snoopTraffic                     0                      
system.cpu.toL2Bus.snoop_fanout::samples        13864                      
system.cpu.toL2Bus.snoop_fanout::mean        0.000072                      
system.cpu.toL2Bus.snoop_fanout::stdev       0.008493                      
system.cpu.toL2Bus.snoop_fanout::underflows            0      0.00%      0.00%
system.cpu.toL2Bus.snoop_fanout::0              13863     99.99%     99.99%
system.cpu.toL2Bus.snoop_fanout::1                  1      0.01%    100.00%
system.cpu.toL2Bus.snoop_fanout::2                  0      0.00%    100.00%
system.cpu.toL2Bus.snoop_fanout::overflows            0      0.00%    100.00%
system.cpu.toL2Bus.snoop_fanout::min_value            0                      
system.cpu.toL2Bus.snoop_fanout::max_value            1                      
system.cpu.toL2Bus.snoop_fanout::total          13864                      
system.cpu.toL2Bus.reqLayer0.occupancy       22478000                      
system.cpu.toL2Bus.reqLayer0.utilization          0.0                      
system.cpu.toL2Bus.respLayer0.occupancy      18432000                      
system.cpu.toL2Bus.respLayer0.utilization          0.0                      
system.cpu.toL2Bus.respLayer1.occupancy       2364000                      
system.cpu.toL2Bus.respLayer1.utilization          0.0                      
system.membus.snoop_filter.tot_requests          5173                      
system.membus.snoop_filter.hit_single_requests            0                      
system.membus.snoop_filter.hit_multi_requests            0                      
system.membus.snoop_filter.tot_snoops               0                      
system.membus.snoop_filter.hit_single_snoops            0                      
system.membus.snoop_filter.hit_multi_snoops            0                      
system.membus.pwrStateResidencyTicks::UNDEFINED 270604702500                      
system.membus.trans_dist::ReadResp               4095                      
system.membus.trans_dist::ReadExReq              1078                      
system.membus.trans_dist::ReadExResp             1078                      
system.membus.trans_dist::ReadSharedReq          4095                      
system.membus.pkt_count_system.cpu.l2cache.mem_side::system.physmem.port        10346                      
system.membus.pkt_count::total                  10346                      
system.membus.pkt_size_system.cpu.l2cache.mem_side::system.physmem.port       331072                      
system.membus.pkt_size::total                  331072                      
system.membus.snoops                                0                      
system.membus.snoopTraffic                          0                      
system.membus.snoop_fanout::samples              5173                      
system.membus.snoop_fanout::mean                    0                      
system.membus.snoop_fanout::stdev                   0                      
system.membus.snoop_fanout::underflows              0      0.00%      0.00%
system.membus.snoop_fanout::0                    5173    100.00%    100.00%
system.membus.snoop_fanout::1                       0      0.00%    100.00%
system.membus.snoop_fanout::overflows               0      0.00%    100.00%
system.membus.snoop_fanout::min_value               0                      
system.membus.snoop_fanout::max_value               0                      
system.membus.snoop_fanout::total                5173                      
system.membus.reqLayer0.occupancy             5203000                      
system.membus.reqLayer0.utilization               0.0                      
system.membus.respLayer1.occupancy           25865000                      
system.membus.respLayer1.utilization              0.0                      

---------- End Simulation Statistics   ----------
