
---------- Begin Simulation Statistics ----------
sim_seconds                                  0.001859                      
sim_ticks                                     1858825                      
final_tick                                    1858825                      
sim_freq                                   1000000000                      
host_inst_rate                                   3630                      
host_op_rate                                     3637                      
host_tick_rate                                  62766                      
host_mem_usage                                 438644                      
host_seconds                                    29.62                      
sim_insts                                      107505                      
sim_ops                                        107717                      
system.voltage_domain.voltage                       1                      
system.clk_domain.clock                             1                      
system.mem_ctrls.pwrStateResidencyTicks::UNDEFINED      1858825                      
system.mem_ctrls.bytes_read::ruby.dir_cntrl0      1845568                      
system.mem_ctrls.bytes_read::total            1845568                      
system.mem_ctrls.bytes_written::ruby.dir_cntrl0      1845312                      
system.mem_ctrls.bytes_written::total         1845312                      
system.mem_ctrls.num_reads::ruby.dir_cntrl0        28837                      
system.mem_ctrls.num_reads::total               28837                      
system.mem_ctrls.num_writes::ruby.dir_cntrl0        28833                      
system.mem_ctrls.num_writes::total              28833                      
system.mem_ctrls.bw_read::ruby.dir_cntrl0    992868075                      
system.mem_ctrls.bw_read::total             992868075                      
system.mem_ctrls.bw_write::ruby.dir_cntrl0    992730354                      
system.mem_ctrls.bw_write::total            992730354                      
system.mem_ctrls.bw_total::ruby.dir_cntrl0   1985598429                      
system.mem_ctrls.bw_total::total           1985598429                      
system.mem_ctrls.readReqs                       28837                      
system.mem_ctrls.writeReqs                      28833                      
system.mem_ctrls.readBursts                     28837                      
system.mem_ctrls.writeBursts                    28833                      
system.mem_ctrls.bytesReadDRAM                 808512                      
system.mem_ctrls.bytesReadWrQ                 1037056                      
system.mem_ctrls.bytesWritten                  850432                      
system.mem_ctrls.bytesReadSys                 1845568                      
system.mem_ctrls.bytesWrittenSys              1845312                      
system.mem_ctrls.servicedByWrQ                  16204                      
system.mem_ctrls.mergedWrBursts                 15513                      
system.mem_ctrls.neitherReadNorWriteReqs            0                      
system.mem_ctrls.perBankRdBursts::0               791                      
system.mem_ctrls.perBankRdBursts::1               377                      
system.mem_ctrls.perBankRdBursts::2               801                      
system.mem_ctrls.perBankRdBursts::3              1138                      
system.mem_ctrls.perBankRdBursts::4                39                      
system.mem_ctrls.perBankRdBursts::5               156                      
system.mem_ctrls.perBankRdBursts::6               208                      
system.mem_ctrls.perBankRdBursts::7               294                      
system.mem_ctrls.perBankRdBursts::8               412                      
system.mem_ctrls.perBankRdBursts::9              1571                      
system.mem_ctrls.perBankRdBursts::10             1498                      
system.mem_ctrls.perBankRdBursts::11             1206                      
system.mem_ctrls.perBankRdBursts::12             1065                      
system.mem_ctrls.perBankRdBursts::13             1722                      
system.mem_ctrls.perBankRdBursts::14             1209                      
system.mem_ctrls.perBankRdBursts::15              146                      
system.mem_ctrls.perBankWrBursts::0               801                      
system.mem_ctrls.perBankWrBursts::1               405                      
system.mem_ctrls.perBankWrBursts::2               818                      
system.mem_ctrls.perBankWrBursts::3              1199                      
system.mem_ctrls.perBankWrBursts::4                42                      
system.mem_ctrls.perBankWrBursts::5               164                      
system.mem_ctrls.perBankWrBursts::6               209                      
system.mem_ctrls.perBankWrBursts::7               297                      
system.mem_ctrls.perBankWrBursts::8               429                      
system.mem_ctrls.perBankWrBursts::9              1685                      
system.mem_ctrls.perBankWrBursts::10             1512                      
system.mem_ctrls.perBankWrBursts::11             1252                      
system.mem_ctrls.perBankWrBursts::12             1123                      
system.mem_ctrls.perBankWrBursts::13             1957                      
system.mem_ctrls.perBankWrBursts::14             1253                      
system.mem_ctrls.perBankWrBursts::15              142                      
system.mem_ctrls.numRdRetry                         0                      
system.mem_ctrls.numWrRetry                         0                      
system.mem_ctrls.totGap                       1858745                      
system.mem_ctrls.readPktSize::0                     0                      
system.mem_ctrls.readPktSize::1                     0                      
system.mem_ctrls.readPktSize::2                     0                      
system.mem_ctrls.readPktSize::3                     0                      
system.mem_ctrls.readPktSize::4                     0                      
system.mem_ctrls.readPktSize::5                     0                      
system.mem_ctrls.readPktSize::6                 28837                      
system.mem_ctrls.writePktSize::0                    0                      
system.mem_ctrls.writePktSize::1                    0                      
system.mem_ctrls.writePktSize::2                    0                      
system.mem_ctrls.writePktSize::3                    0                      
system.mem_ctrls.writePktSize::4                    0                      
system.mem_ctrls.writePktSize::5                    0                      
system.mem_ctrls.writePktSize::6                28833                      
system.mem_ctrls.rdQLenPdf::0                   12633                      
system.mem_ctrls.rdQLenPdf::1                       0                      
system.mem_ctrls.rdQLenPdf::2                       0                      
system.mem_ctrls.rdQLenPdf::3                       0                      
system.mem_ctrls.rdQLenPdf::4                       0                      
system.mem_ctrls.rdQLenPdf::5                       0                      
system.mem_ctrls.rdQLenPdf::6                       0                      
system.mem_ctrls.rdQLenPdf::7                       0                      
system.mem_ctrls.rdQLenPdf::8                       0                      
system.mem_ctrls.rdQLenPdf::9                       0                      
system.mem_ctrls.rdQLenPdf::10                      0                      
system.mem_ctrls.rdQLenPdf::11                      0                      
system.mem_ctrls.rdQLenPdf::12                      0                      
system.mem_ctrls.rdQLenPdf::13                      0                      
system.mem_ctrls.rdQLenPdf::14                      0                      
system.mem_ctrls.rdQLenPdf::15                      0                      
system.mem_ctrls.rdQLenPdf::16                      0                      
system.mem_ctrls.rdQLenPdf::17                      0                      
system.mem_ctrls.rdQLenPdf::18                      0                      
system.mem_ctrls.rdQLenPdf::19                      0                      
system.mem_ctrls.rdQLenPdf::20                      0                      
system.mem_ctrls.rdQLenPdf::21                      0                      
system.mem_ctrls.rdQLenPdf::22                      0                      
system.mem_ctrls.rdQLenPdf::23                      0                      
system.mem_ctrls.rdQLenPdf::24                      0                      
system.mem_ctrls.rdQLenPdf::25                      0                      
system.mem_ctrls.rdQLenPdf::26                      0                      
system.mem_ctrls.rdQLenPdf::27                      0                      
system.mem_ctrls.rdQLenPdf::28                      0                      
system.mem_ctrls.rdQLenPdf::29                      0                      
system.mem_ctrls.rdQLenPdf::30                      0                      
system.mem_ctrls.rdQLenPdf::31                      0                      
system.mem_ctrls.wrQLenPdf::0                       1                      
system.mem_ctrls.wrQLenPdf::1                       1                      
system.mem_ctrls.wrQLenPdf::2                       1                      
system.mem_ctrls.wrQLenPdf::3                       1                      
system.mem_ctrls.wrQLenPdf::4                       1                      
system.mem_ctrls.wrQLenPdf::5                       1                      
system.mem_ctrls.wrQLenPdf::6                       1                      
system.mem_ctrls.wrQLenPdf::7                       1                      
system.mem_ctrls.wrQLenPdf::8                       1                      
system.mem_ctrls.wrQLenPdf::9                       1                      
system.mem_ctrls.wrQLenPdf::10                      1                      
system.mem_ctrls.wrQLenPdf::11                      1                      
system.mem_ctrls.wrQLenPdf::12                      1                      
system.mem_ctrls.wrQLenPdf::13                      1                      
system.mem_ctrls.wrQLenPdf::14                      1                      
system.mem_ctrls.wrQLenPdf::15                    114                      
system.mem_ctrls.wrQLenPdf::16                    139                      
system.mem_ctrls.wrQLenPdf::17                    689                      
system.mem_ctrls.wrQLenPdf::18                    826                      
system.mem_ctrls.wrQLenPdf::19                    837                      
system.mem_ctrls.wrQLenPdf::20                    860                      
system.mem_ctrls.wrQLenPdf::21                    876                      
system.mem_ctrls.wrQLenPdf::22                    854                      
system.mem_ctrls.wrQLenPdf::23                    811                      
system.mem_ctrls.wrQLenPdf::24                    811                      
system.mem_ctrls.wrQLenPdf::25                    812                      
system.mem_ctrls.wrQLenPdf::26                    811                      
system.mem_ctrls.wrQLenPdf::27                    811                      
system.mem_ctrls.wrQLenPdf::28                    811                      
system.mem_ctrls.wrQLenPdf::29                    811                      
system.mem_ctrls.wrQLenPdf::30                    811                      
system.mem_ctrls.wrQLenPdf::31                    811                      
system.mem_ctrls.wrQLenPdf::32                    810                      
system.mem_ctrls.wrQLenPdf::33                      0                      
system.mem_ctrls.wrQLenPdf::34                      0                      
system.mem_ctrls.wrQLenPdf::35                      0                      
system.mem_ctrls.wrQLenPdf::36                      0                      
system.mem_ctrls.wrQLenPdf::37                      0                      
system.mem_ctrls.wrQLenPdf::38                      0                      
system.mem_ctrls.wrQLenPdf::39                      0                      
system.mem_ctrls.wrQLenPdf::40                      0                      
system.mem_ctrls.wrQLenPdf::41                      0                      
system.mem_ctrls.wrQLenPdf::42                      0                      
system.mem_ctrls.wrQLenPdf::43                      0                      
system.mem_ctrls.wrQLenPdf::44                      0                      
system.mem_ctrls.wrQLenPdf::45                      0                      
system.mem_ctrls.wrQLenPdf::46                      0                      
system.mem_ctrls.wrQLenPdf::47                      0                      
system.mem_ctrls.wrQLenPdf::48                      0                      
system.mem_ctrls.wrQLenPdf::49                      0                      
system.mem_ctrls.wrQLenPdf::50                      0                      
system.mem_ctrls.wrQLenPdf::51                      0                      
system.mem_ctrls.wrQLenPdf::52                      0                      
system.mem_ctrls.wrQLenPdf::53                      0                      
system.mem_ctrls.wrQLenPdf::54                      0                      
system.mem_ctrls.wrQLenPdf::55                      0                      
system.mem_ctrls.wrQLenPdf::56                      0                      
system.mem_ctrls.wrQLenPdf::57                      0                      
system.mem_ctrls.wrQLenPdf::58                      0                      
system.mem_ctrls.wrQLenPdf::59                      0                      
system.mem_ctrls.wrQLenPdf::60                      0                      
system.mem_ctrls.wrQLenPdf::61                      0                      
system.mem_ctrls.wrQLenPdf::62                      0                      
system.mem_ctrls.wrQLenPdf::63                      0                      
system.mem_ctrls.bytesPerActivate::samples         5236                      
system.mem_ctrls.bytesPerActivate::mean    316.516425                      
system.mem_ctrls.bytesPerActivate::gmean   214.527854                      
system.mem_ctrls.bytesPerActivate::stdev   285.194511                      
system.mem_ctrls.bytesPerActivate::0-127         1174     22.42%     22.42%
system.mem_ctrls.bytesPerActivate::128-255         1531     29.24%     51.66%
system.mem_ctrls.bytesPerActivate::256-383          903     17.25%     68.91%
system.mem_ctrls.bytesPerActivate::384-511          514      9.82%     78.72%
system.mem_ctrls.bytesPerActivate::512-639          271      5.18%     83.90%
system.mem_ctrls.bytesPerActivate::640-767          207      3.95%     87.85%
system.mem_ctrls.bytesPerActivate::768-895          152      2.90%     90.76%
system.mem_ctrls.bytesPerActivate::896-1023          138      2.64%     93.39%
system.mem_ctrls.bytesPerActivate::1024-1151          346      6.61%    100.00%
system.mem_ctrls.bytesPerActivate::total         5236                      
system.mem_ctrls.rdPerTurnAround::samples          810                      
system.mem_ctrls.rdPerTurnAround::mean      15.576543                      
system.mem_ctrls.rdPerTurnAround::gmean     15.495477                      
system.mem_ctrls.rdPerTurnAround::stdev      1.646720                      
system.mem_ctrls.rdPerTurnAround::12-13            65      8.02%      8.02%
system.mem_ctrls.rdPerTurnAround::14-15           342     42.22%     50.25%
system.mem_ctrls.rdPerTurnAround::16-17           321     39.63%     89.88%
system.mem_ctrls.rdPerTurnAround::18-19            78      9.63%     99.51%
system.mem_ctrls.rdPerTurnAround::20-21             3      0.37%     99.88%
system.mem_ctrls.rdPerTurnAround::34-35             1      0.12%    100.00%
system.mem_ctrls.rdPerTurnAround::total           810                      
system.mem_ctrls.wrPerTurnAround::samples          810                      
system.mem_ctrls.wrPerTurnAround::mean      16.404938                      
system.mem_ctrls.wrPerTurnAround::gmean     16.379881                      
system.mem_ctrls.wrPerTurnAround::stdev      0.941542                      
system.mem_ctrls.wrPerTurnAround::16              674     83.21%     83.21%
system.mem_ctrls.wrPerTurnAround::17               11      1.36%     84.57%
system.mem_ctrls.wrPerTurnAround::18               60      7.41%     91.98%
system.mem_ctrls.wrPerTurnAround::19               63      7.78%     99.75%
system.mem_ctrls.wrPerTurnAround::20                2      0.25%    100.00%
system.mem_ctrls.wrPerTurnAround::total           810                      
system.mem_ctrls.totQLat                       246353                      
system.mem_ctrls.totMemAccLat                  486380                      
system.mem_ctrls.totBusLat                      63165                      
system.mem_ctrls.avgQLat                        19.50                      
system.mem_ctrls.avgBusLat                       5.00                      
system.mem_ctrls.avgMemAccLat                   38.50                      
system.mem_ctrls.avgRdBW                       434.96                      
system.mem_ctrls.avgWrBW                       457.51                      
system.mem_ctrls.avgRdBWSys                    992.87                      
system.mem_ctrls.avgWrBWSys                    992.73                      
system.mem_ctrls.peakBW                      12800.00                      
system.mem_ctrls.busUtil                         6.97                      
system.mem_ctrls.busUtilRead                     3.40                      
system.mem_ctrls.busUtilWrite                    3.57                      
system.mem_ctrls.avgRdQLen                       1.00                      
system.mem_ctrls.avgWrQLen                      26.25                      
system.mem_ctrls.readRowHits                     8783                      
system.mem_ctrls.writeRowHits                   11891                      
system.mem_ctrls.readRowHitRate                 69.52                      
system.mem_ctrls.writeRowHitRate                89.27                      
system.mem_ctrls.avgGap                         32.23                      
system.mem_ctrls.pageHitRate                    79.66                      
system.mem_ctrls_0.actEnergy                  9660420                      
system.mem_ctrls_0.preEnergy                  5204808                      
system.mem_ctrls_0.readEnergy                43456896                      
system.mem_ctrls_0.writeEnergy               32865120                      
system.mem_ctrls_0.refreshEnergy         143825760.000000                      
system.mem_ctrls_0.actBackEnergy            210861240                      
system.mem_ctrls_0.preBackEnergy              3899904                      
system.mem_ctrls_0.actPowerDownEnergy       517171488                      
system.mem_ctrls_0.prePowerDownEnergy        60469632                      
system.mem_ctrls_0.selfRefreshEnergy         27711816                      
system.mem_ctrls_0.totalEnergy             1055147052                      
system.mem_ctrls_0.averagePower            567.641952                      
system.mem_ctrls_0.totalIdleTime              1386171                      
system.mem_ctrls_0.memoryStateTime::IDLE         3568                      
system.mem_ctrls_0.memoryStateTime::REF         60894                      
system.mem_ctrls_0.memoryStateTime::SREF        94587                      
system.mem_ctrls_0.memoryStateTime::PRE_PDN       157473                      
system.mem_ctrls_0.memoryStateTime::ACT        408155                      
system.mem_ctrls_0.memoryStateTime::ACT_PDN      1134148                      
system.mem_ctrls_1.actEnergy                 27803160                      
system.mem_ctrls_1.preEnergy                 15027096                      
system.mem_ctrls_1.readEnergy               100862496                      
system.mem_ctrls_1.writeEnergy               78116256                      
system.mem_ctrls_1.refreshEnergy         147513600.000000                      
system.mem_ctrls_1.actBackEnergy            209065056                      
system.mem_ctrls_1.preBackEnergy              3613824                      
system.mem_ctrls_1.actPowerDownEnergy       587665896                      
system.mem_ctrls_1.prePowerDownEnergy        32830080                      
system.mem_ctrls_1.selfRefreshEnergy          6217440                      
system.mem_ctrls_1.totalEnergy             1208714904                      
system.mem_ctrls_1.averagePower            650.257504                      
system.mem_ctrls_1.totalIdleTime              1390821                      
system.mem_ctrls_1.memoryStateTime::IDLE         2339                      
system.mem_ctrls_1.memoryStateTime::REF         62430                      
system.mem_ctrls_1.memoryStateTime::SREF        16702                      
system.mem_ctrls_1.memoryStateTime::PRE_PDN        85495                      
system.mem_ctrls_1.memoryStateTime::ACT        403118                      
system.mem_ctrls_1.memoryStateTime::ACT_PDN      1288741                      
system.pwrStateResidencyTicks::UNDEFINED      1858825                      
system.cpu.clk_domain.clock                         1                      
system.cpu.dtb.read_hits                            0                      
system.cpu.dtb.read_misses                          0                      
system.cpu.dtb.read_accesses                        0                      
system.cpu.dtb.write_hits                           0                      
system.cpu.dtb.write_misses                         0                      
system.cpu.dtb.write_accesses                       0                      
system.cpu.dtb.hits                                 0                      
system.cpu.dtb.misses                               0                      
system.cpu.dtb.accesses                             0                      
system.cpu.itb.read_hits                            0                      
system.cpu.itb.read_misses                          0                      
system.cpu.itb.read_accesses                        0                      
system.cpu.itb.write_hits                           0                      
system.cpu.itb.write_misses                         0                      
system.cpu.itb.write_accesses                       0                      
system.cpu.itb.hits                                 0                      
system.cpu.itb.misses                               0                      
system.cpu.itb.accesses                             0                      
system.cpu.workload.numSyscalls                    45                      
system.cpu.pwrStateResidencyTicks::ON         1858825                      
system.cpu.numCycles                          1858825                      
system.cpu.numWorkItemsStarted                      0                      
system.cpu.numWorkItemsCompleted                    0                      
system.cpu.committedInsts                      107505                      
system.cpu.committedOps                        107717                      
system.cpu.num_int_alu_accesses                107132                      
system.cpu.num_fp_alu_accesses                     12                      
system.cpu.num_vec_alu_accesses                     0                      
system.cpu.num_func_calls                        6215                      
system.cpu.num_conditional_control_insts        17634                      
system.cpu.num_int_insts                       107132                      
system.cpu.num_fp_insts                            12                      
system.cpu.num_vec_insts                            0                      
system.cpu.num_int_register_reads              134283                      
system.cpu.num_int_register_writes              70918                      
system.cpu.num_fp_register_reads                   12                      
system.cpu.num_fp_register_writes                   0                      
system.cpu.num_vec_register_reads                   0                      
system.cpu.num_vec_register_writes                  0                      
system.cpu.num_mem_refs                         41605                      
system.cpu.num_load_insts                       25266                      
system.cpu.num_store_insts                      16339                      
system.cpu.num_idle_cycles                          0                      
system.cpu.num_busy_cycles                    1858825                      
system.cpu.not_idle_fraction                        1                      
system.cpu.idle_fraction                            0                      
system.cpu.Branches                             23849                      
system.cpu.op_class::No_OpClass                    49      0.05%      0.05%
system.cpu.op_class::IntAlu                     65954     61.20%     61.25%
system.cpu.op_class::IntMult                      124      0.12%     61.36%
system.cpu.op_class::IntDiv                        30      0.03%     61.39%
system.cpu.op_class::FloatAdd                       0      0.00%     61.39%
system.cpu.op_class::FloatCmp                       0      0.00%     61.39%
system.cpu.op_class::FloatCvt                       0      0.00%     61.39%
system.cpu.op_class::FloatMult                      0      0.00%     61.39%
system.cpu.op_class::FloatMultAcc                   0      0.00%     61.39%
system.cpu.op_class::FloatDiv                       0      0.00%     61.39%
system.cpu.op_class::FloatMisc                      0      0.00%     61.39%
system.cpu.op_class::FloatSqrt                      0      0.00%     61.39%
system.cpu.op_class::SimdAdd                        0      0.00%     61.39%
system.cpu.op_class::SimdAddAcc                     0      0.00%     61.39%
system.cpu.op_class::SimdAlu                        0      0.00%     61.39%
system.cpu.op_class::SimdCmp                        0      0.00%     61.39%
system.cpu.op_class::SimdCvt                        0      0.00%     61.39%
system.cpu.op_class::SimdMisc                       0      0.00%     61.39%
system.cpu.op_class::SimdMult                       0      0.00%     61.39%
system.cpu.op_class::SimdMultAcc                    0      0.00%     61.39%
system.cpu.op_class::SimdShift                      0      0.00%     61.39%
system.cpu.op_class::SimdShiftAcc                   0      0.00%     61.39%
system.cpu.op_class::SimdSqrt                       0      0.00%     61.39%
system.cpu.op_class::SimdFloatAdd                   0      0.00%     61.39%
system.cpu.op_class::SimdFloatAlu                   0      0.00%     61.39%
system.cpu.op_class::SimdFloatCmp                   0      0.00%     61.39%
system.cpu.op_class::SimdFloatCvt                   0      0.00%     61.39%
system.cpu.op_class::SimdFloatDiv                   0      0.00%     61.39%
system.cpu.op_class::SimdFloatMisc                  0      0.00%     61.39%
system.cpu.op_class::SimdFloatMult                  0      0.00%     61.39%
system.cpu.op_class::SimdFloatMultAcc               0      0.00%     61.39%
system.cpu.op_class::SimdFloatSqrt                  0      0.00%     61.39%
system.cpu.op_class::MemRead                    25266     23.45%     84.84%
system.cpu.op_class::MemWrite                   16327     15.15%     99.99%
system.cpu.op_class::FloatMemRead                   0      0.00%     99.99%
system.cpu.op_class::FloatMemWrite                 12      0.01%    100.00%
system.cpu.op_class::IprAccess                      0      0.00%    100.00%
system.cpu.op_class::InstPrefetch                   0      0.00%    100.00%
system.cpu.op_class::total                     107762                      
system.ruby.clk_domain.clock                        1                      
system.ruby.pwrStateResidencyTicks::UNDEFINED      1858825                      
system.ruby.delayHist::bucket_size                  1                      
system.ruby.delayHist::max_bucket                   9                      
system.ruby.delayHist::samples                  57670                      
system.ruby.delayHist                    |       57670    100.00%    100.00% |           0      0.00%    100.00% |           0      0.00%    100.00% |           0      0.00%    100.00% |           0      0.00%    100.00% |           0      0.00%    100.00% |           0      0.00%    100.00% |           0      0.00%    100.00% |           0      0.00%    100.00% |           0      0.00%    100.00%
system.ruby.delayHist::total                    57670                      
system.ruby.outstanding_req_hist_seqr::bucket_size            1                      
system.ruby.outstanding_req_hist_seqr::max_bucket            9                      
system.ruby.outstanding_req_hist_seqr::samples       176093                      
system.ruby.outstanding_req_hist_seqr::mean            1                      
system.ruby.outstanding_req_hist_seqr::gmean            1                      
system.ruby.outstanding_req_hist_seqr    |           0      0.00%      0.00% |      176093    100.00%    100.00% |           0      0.00%    100.00% |           0      0.00%    100.00% |           0      0.00%    100.00% |           0      0.00%    100.00% |           0      0.00%    100.00% |           0      0.00%    100.00% |           0      0.00%    100.00% |           0      0.00%    100.00%
system.ruby.outstanding_req_hist_seqr::total       176093                      
system.ruby.latency_hist_seqr::bucket_size           64                      
system.ruby.latency_hist_seqr::max_bucket          639                      
system.ruby.latency_hist_seqr::samples         176092                      
system.ruby.latency_hist_seqr::mean          9.555988                      
system.ruby.latency_hist_seqr::gmean         1.877495                      
system.ruby.latency_hist_seqr::stdev        23.909492                      
system.ruby.latency_hist_seqr            |      163928     93.09%     93.09% |       11377      6.46%     99.55% |         529      0.30%     99.85% |          95      0.05%     99.91% |          91      0.05%     99.96% |          54      0.03%     99.99% |           8      0.00%     99.99% |           3      0.00%    100.00% |           0      0.00%    100.00% |           7      0.00%    100.00%
system.ruby.latency_hist_seqr::total           176092                      
system.ruby.hit_latency_hist_seqr::bucket_size            1                      
system.ruby.hit_latency_hist_seqr::max_bucket            9                      
system.ruby.hit_latency_hist_seqr::samples       147255                      
system.ruby.hit_latency_hist_seqr::mean             1                      
system.ruby.hit_latency_hist_seqr::gmean            1                      
system.ruby.hit_latency_hist_seqr        |           0      0.00%      0.00% |      147255    100.00%    100.00% |           0      0.00%    100.00% |           0      0.00%    100.00% |           0      0.00%    100.00% |           0      0.00%    100.00% |           0      0.00%    100.00% |           0      0.00%    100.00% |           0      0.00%    100.00% |           0      0.00%    100.00%
system.ruby.hit_latency_hist_seqr::total       147255                      
system.ruby.miss_latency_hist_seqr::bucket_size           64                      
system.ruby.miss_latency_hist_seqr::max_bucket          639                      
system.ruby.miss_latency_hist_seqr::samples        28837                      
system.ruby.miss_latency_hist_seqr::mean    53.246801                      
system.ruby.miss_latency_hist_seqr::gmean    46.837910                      
system.ruby.miss_latency_hist_seqr::stdev    34.758587                      
system.ruby.miss_latency_hist_seqr       |       16673     57.82%     57.82% |       11377     39.45%     97.27% |         529      1.83%     99.11% |          95      0.33%     99.43% |          91      0.32%     99.75% |          54      0.19%     99.94% |           8      0.03%     99.97% |           3      0.01%     99.98% |           0      0.00%     99.98% |           7      0.02%    100.00%
system.ruby.miss_latency_hist_seqr::total        28837                      
system.ruby.Directory.incomplete_times_seqr        28836                      
system.ruby.dir_cntrl0.forwardFromDir.avg_buf_msgs     0.015511                      
system.ruby.dir_cntrl0.forwardFromDir.avg_stall_time     0.999804                      
system.ruby.dir_cntrl0.requestToDir.avg_buf_msgs     0.031025                      
system.ruby.dir_cntrl0.requestToDir.avg_stall_time    11.751023                      
system.ruby.dir_cntrl0.responseFromDir.avg_buf_msgs     0.015514                      
system.ruby.dir_cntrl0.responseFromDir.avg_stall_time     0.999963                      
system.ruby.dir_cntrl0.responseFromMemory.avg_buf_msgs     0.031025                      
system.ruby.dir_cntrl0.responseFromMemory.avg_stall_time     0.999963                      
system.ruby.dir_cntrl0.pwrStateResidencyTicks::UNDEFINED      1858825                      
system.ruby.l1_cntrl0.cacheMemory.demand_hits       147255                      
system.ruby.l1_cntrl0.cacheMemory.demand_misses        28837                      
system.ruby.l1_cntrl0.cacheMemory.demand_accesses       176092                      
system.ruby.l1_cntrl0.forwardToCache.avg_buf_msgs     0.015511                      
system.ruby.l1_cntrl0.forwardToCache.avg_stall_time     6.998607                      
system.ruby.l1_cntrl0.mandatoryQueue.avg_buf_msgs     0.094733                      
system.ruby.l1_cntrl0.mandatoryQueue.avg_stall_time     0.999999                      
system.ruby.l1_cntrl0.requestFromCache.avg_buf_msgs     0.062050                      
system.ruby.l1_cntrl0.requestFromCache.avg_stall_time     1.999997                      
system.ruby.l1_cntrl0.responseToCache.avg_buf_msgs     0.015514                      
system.ruby.l1_cntrl0.responseToCache.avg_stall_time     6.999718                      
system.ruby.l1_cntrl0.sequencer.pwrStateResidencyTicks::UNDEFINED      1858825                      
system.ruby.l1_cntrl0.pwrStateResidencyTicks::UNDEFINED      1858825                      
system.ruby.memctrl_clk_domain.clock                3                      
system.ruby.network.routers0.port_buffers03.avg_buf_msgs     0.015511                      
system.ruby.network.routers0.port_buffers03.avg_stall_time     5.998809                      
system.ruby.network.routers0.port_buffers04.avg_buf_msgs     0.015514                      
system.ruby.network.routers0.port_buffers04.avg_stall_time     5.999761                      
system.ruby.network.routers0.port_buffers07.avg_buf_msgs     0.093071                      
system.ruby.network.routers0.port_buffers07.avg_stall_time     6.751067                      
system.ruby.network.routers0.pwrStateResidencyTicks::UNDEFINED      1858825                      
system.ruby.network.routers0.percent_links_utilized     7.756244                      
system.ruby.network.routers0.msg_count.Control::2        28837                      
system.ruby.network.routers0.msg_count.Data::2        28833                      
system.ruby.network.routers0.msg_count.Response_Data::4        28837                      
system.ruby.network.routers0.msg_count.Writeback_Control::3        28833                      
system.ruby.network.routers0.msg_bytes.Control::2       230696                      
system.ruby.network.routers0.msg_bytes.Data::2      2075976                      
system.ruby.network.routers0.msg_bytes.Response_Data::4      2076264                      
system.ruby.network.routers0.msg_bytes.Writeback_Control::3       230664                      
system.ruby.network.routers1.port_buffers02.avg_buf_msgs     0.031025                      
system.ruby.network.routers1.port_buffers02.avg_stall_time    10.751034                      
system.ruby.network.routers1.port_buffers06.avg_buf_msgs     0.015511                      
system.ruby.network.routers1.port_buffers06.avg_stall_time     1.999607                      
system.ruby.network.routers1.port_buffers07.avg_buf_msgs     0.015514                      
system.ruby.network.routers1.port_buffers07.avg_stall_time     1.999925                      
system.ruby.network.routers1.pwrStateResidencyTicks::UNDEFINED      1858825                      
system.ruby.network.routers1.percent_links_utilized     7.756244                      
system.ruby.network.routers1.msg_count.Control::2        28837                      
system.ruby.network.routers1.msg_count.Data::2        28833                      
system.ruby.network.routers1.msg_count.Response_Data::4        28837                      
system.ruby.network.routers1.msg_count.Writeback_Control::3        28833                      
system.ruby.network.routers1.msg_bytes.Control::2       230696                      
system.ruby.network.routers1.msg_bytes.Data::2      2075976                      
system.ruby.network.routers1.msg_bytes.Response_Data::4      2076264                      
system.ruby.network.routers1.msg_bytes.Writeback_Control::3       230664                      
system.ruby.network.int_link_buffers02.avg_buf_msgs     0.031025                      
system.ruby.network.int_link_buffers02.avg_stall_time     7.751060                      
system.ruby.network.int_link_buffers08.avg_buf_msgs     0.015511                      
system.ruby.network.int_link_buffers08.avg_stall_time     2.999409                      
system.ruby.network.int_link_buffers09.avg_buf_msgs     0.015514                      
system.ruby.network.int_link_buffers09.avg_stall_time     2.999885                      
system.ruby.network.int_link_buffers13.avg_buf_msgs     0.015511                      
system.ruby.network.int_link_buffers13.avg_stall_time     4.999010                      
system.ruby.network.int_link_buffers14.avg_buf_msgs     0.015514                      
system.ruby.network.int_link_buffers14.avg_stall_time     4.999804                      
system.ruby.network.int_link_buffers17.avg_buf_msgs     0.031025                      
system.ruby.network.int_link_buffers17.avg_stall_time     9.751044                      
system.ruby.network.routers2.port_buffers03.avg_buf_msgs     0.015511                      
system.ruby.network.routers2.port_buffers03.avg_stall_time     3.999210                      
system.ruby.network.routers2.port_buffers04.avg_buf_msgs     0.015514                      
system.ruby.network.routers2.port_buffers04.avg_stall_time     3.999845                      
system.ruby.network.routers2.port_buffers07.avg_buf_msgs     0.031025                      
system.ruby.network.routers2.port_buffers07.avg_stall_time     8.751053                      
system.ruby.network.routers2.pwrStateResidencyTicks::UNDEFINED      1858825                      
system.ruby.network.routers2.percent_links_utilized     7.756244                      
system.ruby.network.routers2.msg_count.Control::2        28837                      
system.ruby.network.routers2.msg_count.Data::2        28833                      
system.ruby.network.routers2.msg_count.Response_Data::4        28837                      
system.ruby.network.routers2.msg_count.Writeback_Control::3        28833                      
system.ruby.network.routers2.msg_bytes.Control::2       230696                      
system.ruby.network.routers2.msg_bytes.Data::2      2075976                      
system.ruby.network.routers2.msg_bytes.Response_Data::4      2076264                      
system.ruby.network.routers2.msg_bytes.Writeback_Control::3       230664                      
system.ruby.network.pwrStateResidencyTicks::UNDEFINED      1858825                      
system.ruby.network.msg_count.Control           86511                      
system.ruby.network.msg_count.Data              86499                      
system.ruby.network.msg_count.Response_Data        86511                      
system.ruby.network.msg_count.Writeback_Control        86499                      
system.ruby.network.msg_byte.Control           692088                      
system.ruby.network.msg_byte.Data             6227928                      
system.ruby.network.msg_byte.Response_Data      6228792                      
system.ruby.network.msg_byte.Writeback_Control       691992                      
system.sys_port_proxy.pwrStateResidencyTicks::UNDEFINED      1858825                      
system.ruby.network.routers0.throttle0.link_utilization     7.756674                      
system.ruby.network.routers0.throttle0.msg_count.Response_Data::4        28837                      
system.ruby.network.routers0.throttle0.msg_count.Writeback_Control::3        28833                      
system.ruby.network.routers0.throttle0.msg_bytes.Response_Data::4      2076264                      
system.ruby.network.routers0.throttle0.msg_bytes.Writeback_Control::3       230664                      
system.ruby.network.routers0.throttle1.link_utilization     7.755813                      
system.ruby.network.routers0.throttle1.msg_count.Control::2        28837                      
system.ruby.network.routers0.throttle1.msg_count.Data::2        28833                      
system.ruby.network.routers0.throttle1.msg_bytes.Control::2       230696                      
system.ruby.network.routers0.throttle1.msg_bytes.Data::2      2075976                      
system.ruby.network.routers1.throttle0.link_utilization     7.755813                      
system.ruby.network.routers1.throttle0.msg_count.Control::2        28837                      
system.ruby.network.routers1.throttle0.msg_count.Data::2        28833                      
system.ruby.network.routers1.throttle0.msg_bytes.Control::2       230696                      
system.ruby.network.routers1.throttle0.msg_bytes.Data::2      2075976                      
system.ruby.network.routers1.throttle1.link_utilization     7.756674                      
system.ruby.network.routers1.throttle1.msg_count.Response_Data::4        28837                      
system.ruby.network.routers1.throttle1.msg_count.Writeback_Control::3        28833                      
system.ruby.network.routers1.throttle1.msg_bytes.Response_Data::4      2076264                      
system.ruby.network.routers1.throttle1.msg_bytes.Writeback_Control::3       230664                      
system.ruby.network.routers2.throttle0.link_utilization     7.756674                      
system.ruby.network.routers2.throttle0.msg_count.Response_Data::4        28837                      
system.ruby.network.routers2.throttle0.msg_count.Writeback_Control::3        28833                      
system.ruby.network.routers2.throttle0.msg_bytes.Response_Data::4      2076264                      
system.ruby.network.routers2.throttle0.msg_bytes.Writeback_Control::3       230664                      
system.ruby.network.routers2.throttle1.link_utilization     7.755813                      
system.ruby.network.routers2.throttle1.msg_count.Control::2        28837                      
system.ruby.network.routers2.throttle1.msg_count.Data::2        28833                      
system.ruby.network.routers2.throttle1.msg_bytes.Control::2       230696                      
system.ruby.network.routers2.throttle1.msg_bytes.Data::2      2075976                      
system.ruby.delayVCHist.vnet_1::bucket_size            1                      
system.ruby.delayVCHist.vnet_1::max_bucket            9                      
system.ruby.delayVCHist.vnet_1::samples         28837                      
system.ruby.delayVCHist.vnet_1           |       28837    100.00%    100.00% |           0      0.00%    100.00% |           0      0.00%    100.00% |           0      0.00%    100.00% |           0      0.00%    100.00% |           0      0.00%    100.00% |           0      0.00%    100.00% |           0      0.00%    100.00% |           0      0.00%    100.00% |           0      0.00%    100.00%
system.ruby.delayVCHist.vnet_1::total           28837                      
system.ruby.delayVCHist.vnet_2::bucket_size            1                      
system.ruby.delayVCHist.vnet_2::max_bucket            9                      
system.ruby.delayVCHist.vnet_2::samples         28833                      
system.ruby.delayVCHist.vnet_2           |       28833    100.00%    100.00% |           0      0.00%    100.00% |           0      0.00%    100.00% |           0      0.00%    100.00% |           0      0.00%    100.00% |           0      0.00%    100.00% |           0      0.00%    100.00% |           0      0.00%    100.00% |           0      0.00%    100.00% |           0      0.00%    100.00%
system.ruby.delayVCHist.vnet_2::total           28833                      
system.ruby.LD.latency_hist_seqr::bucket_size           64                      
system.ruby.LD.latency_hist_seqr::max_bucket          639                      
system.ruby.LD.latency_hist_seqr::samples        25029                      
system.ruby.LD.latency_hist_seqr::mean      27.003356                      
system.ruby.LD.latency_hist_seqr::gmean      6.909676                      
system.ruby.LD.latency_hist_seqr::stdev     35.388693                      
system.ruby.LD.latency_hist_seqr         |       19926     79.61%     79.61% |        4779     19.09%     98.71% |         221      0.88%     99.59% |          36      0.14%     99.73% |          38      0.15%     99.88% |          23      0.09%     99.98% |           4      0.02%     99.99% |           1      0.00%    100.00% |           0      0.00%    100.00% |           1      0.00%    100.00%
system.ruby.LD.latency_hist_seqr::total         25029                      
system.ruby.LD.hit_latency_hist_seqr::bucket_size            1                      
system.ruby.LD.hit_latency_hist_seqr::max_bucket            9                      
system.ruby.LD.hit_latency_hist_seqr::samples        12406                      
system.ruby.LD.hit_latency_hist_seqr::mean            1                      
system.ruby.LD.hit_latency_hist_seqr::gmean            1                      
system.ruby.LD.hit_latency_hist_seqr     |           0      0.00%      0.00% |       12406    100.00%    100.00% |           0      0.00%    100.00% |           0      0.00%    100.00% |           0      0.00%    100.00% |           0      0.00%    100.00% |           0      0.00%    100.00% |           0      0.00%    100.00% |           0      0.00%    100.00% |           0      0.00%    100.00%
system.ruby.LD.hit_latency_hist_seqr::total        12406                      
system.ruby.LD.miss_latency_hist_seqr::bucket_size           64                      
system.ruby.LD.miss_latency_hist_seqr::max_bucket          639                      
system.ruby.LD.miss_latency_hist_seqr::samples        12623                      
system.ruby.LD.miss_latency_hist_seqr::mean    52.559693                      
system.ruby.LD.miss_latency_hist_seqr::gmean    46.183238                      
system.ruby.LD.miss_latency_hist_seqr::stdev    34.139513                      
system.ruby.LD.miss_latency_hist_seqr    |        7520     59.57%     59.57% |        4779     37.86%     97.43% |         221      1.75%     99.18% |          36      0.29%     99.47% |          38      0.30%     99.77% |          23      0.18%     99.95% |           4      0.03%     99.98% |           1      0.01%     99.99% |           0      0.00%     99.99% |           1      0.01%    100.00%
system.ruby.LD.miss_latency_hist_seqr::total        12623                      
system.ruby.ST.latency_hist_seqr::bucket_size           64                      
system.ruby.ST.latency_hist_seqr::max_bucket          639                      
system.ruby.ST.latency_hist_seqr::samples        16102                      
system.ruby.ST.latency_hist_seqr::mean      15.175196                      
system.ruby.ST.latency_hist_seqr::gmean      3.407774                      
system.ruby.ST.latency_hist_seqr::stdev     26.847749                      
system.ruby.ST.latency_hist_seqr         |       14941     92.79%     92.79% |        1070      6.65%     99.43% |          62      0.39%     99.82% |           8      0.05%     99.87% |          10      0.06%     99.93% |           6      0.04%     99.97% |           0      0.00%     99.97% |           1      0.01%     99.98% |           0      0.00%     99.98% |           4      0.02%    100.00%
system.ruby.ST.latency_hist_seqr::total         16102                      
system.ruby.ST.hit_latency_hist_seqr::bucket_size            1                      
system.ruby.ST.hit_latency_hist_seqr::max_bucket            9                      
system.ruby.ST.hit_latency_hist_seqr::samples        10712                      
system.ruby.ST.hit_latency_hist_seqr::mean            1                      
system.ruby.ST.hit_latency_hist_seqr::gmean            1                      
system.ruby.ST.hit_latency_hist_seqr     |           0      0.00%      0.00% |       10712    100.00%    100.00% |           0      0.00%    100.00% |           0      0.00%    100.00% |           0      0.00%    100.00% |           0      0.00%    100.00% |           0      0.00%    100.00% |           0      0.00%    100.00% |           0      0.00%    100.00% |           0      0.00%    100.00%
system.ruby.ST.hit_latency_hist_seqr::total        10712                      
system.ruby.ST.miss_latency_hist_seqr::bucket_size           64                      
system.ruby.ST.miss_latency_hist_seqr::max_bucket          639                      
system.ruby.ST.miss_latency_hist_seqr::samples         5390                      
system.ruby.ST.miss_latency_hist_seqr::mean    43.346753                      
system.ruby.ST.miss_latency_hist_seqr::gmean    38.966782                      
system.ruby.ST.miss_latency_hist_seqr::stdev    30.990026                      
system.ruby.ST.miss_latency_hist_seqr    |        4229     78.46%     78.46% |        1070     19.85%     98.31% |          62      1.15%     99.46% |           8      0.15%     99.61% |          10      0.19%     99.80% |           6      0.11%     99.91% |           0      0.00%     99.91% |           1      0.02%     99.93% |           0      0.00%     99.93% |           4      0.07%    100.00%
system.ruby.ST.miss_latency_hist_seqr::total         5390                      
system.ruby.IFETCH.latency_hist_seqr::bucket_size           64                      
system.ruby.IFETCH.latency_hist_seqr::max_bucket          639                      
system.ruby.IFETCH.latency_hist_seqr::samples       134487                      
system.ruby.IFETCH.latency_hist_seqr::mean     5.587313                      
system.ruby.IFETCH.latency_hist_seqr::gmean     1.367123                      
system.ruby.IFETCH.latency_hist_seqr::stdev    18.655199                      
system.ruby.IFETCH.latency_hist_seqr     |      128690     95.69%     95.69% |        5432      4.04%     99.73% |         243      0.18%     99.91% |          48      0.04%     99.94% |          42      0.03%     99.98% |          25      0.02%     99.99% |           4      0.00%    100.00% |           1      0.00%    100.00% |           0      0.00%    100.00% |           2      0.00%    100.00%
system.ruby.IFETCH.latency_hist_seqr::total       134487                      
system.ruby.IFETCH.hit_latency_hist_seqr::bucket_size            1                      
system.ruby.IFETCH.hit_latency_hist_seqr::max_bucket            9                      
system.ruby.IFETCH.hit_latency_hist_seqr::samples       123855                      
system.ruby.IFETCH.hit_latency_hist_seqr::mean            1                      
system.ruby.IFETCH.hit_latency_hist_seqr::gmean            1                      
system.ruby.IFETCH.hit_latency_hist_seqr |           0      0.00%      0.00% |      123855    100.00%    100.00% |           0      0.00%    100.00% |           0      0.00%    100.00% |           0      0.00%    100.00% |           0      0.00%    100.00% |           0      0.00%    100.00% |           0      0.00%    100.00% |           0      0.00%    100.00% |           0      0.00%    100.00%
system.ruby.IFETCH.hit_latency_hist_seqr::total       123855                      
system.ruby.IFETCH.miss_latency_hist_seqr::bucket_size           64                      
system.ruby.IFETCH.miss_latency_hist_seqr::max_bucket          639                      
system.ruby.IFETCH.miss_latency_hist_seqr::samples        10632                      
system.ruby.IFETCH.miss_latency_hist_seqr::mean    59.026147                      
system.ruby.IFETCH.miss_latency_hist_seqr::gmean    52.223378                      
system.ruby.IFETCH.miss_latency_hist_seqr::stdev    36.074822                      
system.ruby.IFETCH.miss_latency_hist_seqr |        4835     45.48%     45.48% |        5432     51.09%     96.57% |         243      2.29%     98.85% |          48      0.45%     99.30% |          42      0.40%     99.70% |          25      0.24%     99.93% |           4      0.04%     99.97% |           1      0.01%     99.98% |           0      0.00%     99.98% |           2      0.02%    100.00%
system.ruby.IFETCH.miss_latency_hist_seqr::total        10632                      
system.ruby.Load_Linked.latency_hist_seqr::bucket_size           32                      
system.ruby.Load_Linked.latency_hist_seqr::max_bucket          319                      
system.ruby.Load_Linked.latency_hist_seqr::samples          237                      
system.ruby.Load_Linked.latency_hist_seqr::mean    45.810127                      
system.ruby.Load_Linked.latency_hist_seqr::gmean    23.754096                      
system.ruby.Load_Linked.latency_hist_seqr::stdev    37.801581                      
system.ruby.Load_Linked.latency_hist_seqr |          45     18.99%     18.99% |          89     37.55%     56.54% |          95     40.08%     96.62% |           1      0.42%     97.05% |           1      0.42%     97.47% |           2      0.84%     98.31% |           3      1.27%     99.58% |           0      0.00%     99.58% |           0      0.00%     99.58% |           1      0.42%    100.00%
system.ruby.Load_Linked.latency_hist_seqr::total          237                      
system.ruby.Load_Linked.hit_latency_hist_seqr::bucket_size            1                      
system.ruby.Load_Linked.hit_latency_hist_seqr::max_bucket            9                      
system.ruby.Load_Linked.hit_latency_hist_seqr::samples           45                      
system.ruby.Load_Linked.hit_latency_hist_seqr::mean            1                      
system.ruby.Load_Linked.hit_latency_hist_seqr::gmean            1                      
system.ruby.Load_Linked.hit_latency_hist_seqr |           0      0.00%      0.00% |          45    100.00%    100.00% |           0      0.00%    100.00% |           0      0.00%    100.00% |           0      0.00%    100.00% |           0      0.00%    100.00% |           0      0.00%    100.00% |           0      0.00%    100.00% |           0      0.00%    100.00% |           0      0.00%    100.00%
system.ruby.Load_Linked.hit_latency_hist_seqr::total           45                      
system.ruby.Load_Linked.miss_latency_hist_seqr::bucket_size           32                      
system.ruby.Load_Linked.miss_latency_hist_seqr::max_bucket          319                      
system.ruby.Load_Linked.miss_latency_hist_seqr::samples          192                      
system.ruby.Load_Linked.miss_latency_hist_seqr::mean    56.312500                      
system.ruby.Load_Linked.miss_latency_hist_seqr::gmean    49.908811                      
system.ruby.Load_Linked.miss_latency_hist_seqr::stdev    34.375449                      
system.ruby.Load_Linked.miss_latency_hist_seqr |           0      0.00%      0.00% |          89     46.35%     46.35% |          95     49.48%     95.83% |           1      0.52%     96.35% |           1      0.52%     96.88% |           2      1.04%     97.92% |           3      1.56%     99.48% |           0      0.00%     99.48% |           0      0.00%     99.48% |           1      0.52%    100.00%
system.ruby.Load_Linked.miss_latency_hist_seqr::total          192                      
system.ruby.Store_Conditional.latency_hist_seqr::bucket_size            1                      
system.ruby.Store_Conditional.latency_hist_seqr::max_bucket            9                      
system.ruby.Store_Conditional.latency_hist_seqr::samples          237                      
system.ruby.Store_Conditional.latency_hist_seqr::mean            1                      
system.ruby.Store_Conditional.latency_hist_seqr::gmean            1                      
system.ruby.Store_Conditional.latency_hist_seqr |           0      0.00%      0.00% |         237    100.00%    100.00% |           0      0.00%    100.00% |           0      0.00%    100.00% |           0      0.00%    100.00% |           0      0.00%    100.00% |           0      0.00%    100.00% |           0      0.00%    100.00% |           0      0.00%    100.00% |           0      0.00%    100.00%
system.ruby.Store_Conditional.latency_hist_seqr::total          237                      
system.ruby.Store_Conditional.hit_latency_hist_seqr::bucket_size            1                      
system.ruby.Store_Conditional.hit_latency_hist_seqr::max_bucket            9                      
system.ruby.Store_Conditional.hit_latency_hist_seqr::samples          237                      
system.ruby.Store_Conditional.hit_latency_hist_seqr::mean            1                      
system.ruby.Store_Conditional.hit_latency_hist_seqr::gmean            1                      
system.ruby.Store_Conditional.hit_latency_hist_seqr |           0      0.00%      0.00% |         237    100.00%    100.00% |           0      0.00%    100.00% |           0      0.00%    100.00% |           0      0.00%    100.00% |           0      0.00%    100.00% |           0      0.00%    100.00% |           0      0.00%    100.00% |           0      0.00%    100.00% |           0      0.00%    100.00%
system.ruby.Store_Conditional.hit_latency_hist_seqr::total          237                      
system.ruby.Directory.miss_mach_latency_hist_seqr::bucket_size           64                      
system.ruby.Directory.miss_mach_latency_hist_seqr::max_bucket          639                      
system.ruby.Directory.miss_mach_latency_hist_seqr::samples        28837                      
system.ruby.Directory.miss_mach_latency_hist_seqr::mean    53.246801                      
system.ruby.Directory.miss_mach_latency_hist_seqr::gmean    46.837910                      
system.ruby.Directory.miss_mach_latency_hist_seqr::stdev    34.758587                      
system.ruby.Directory.miss_mach_latency_hist_seqr |       16673     57.82%     57.82% |       11377     39.45%     97.27% |         529      1.83%     99.11% |          95      0.33%     99.43% |          91      0.32%     99.75% |          54      0.19%     99.94% |           8      0.03%     99.97% |           3      0.01%     99.98% |           0      0.00%     99.98% |           7      0.02%    100.00%
system.ruby.Directory.miss_mach_latency_hist_seqr::total        28837                      
system.ruby.Directory.miss_latency_hist_seqr.issue_to_initial_request::bucket_size            1                      
system.ruby.Directory.miss_latency_hist_seqr.issue_to_initial_request::max_bucket            9                      
system.ruby.Directory.miss_latency_hist_seqr.issue_to_initial_request::samples            1                      
system.ruby.Directory.miss_latency_hist_seqr.issue_to_initial_request::stdev          nan                      
system.ruby.Directory.miss_latency_hist_seqr.issue_to_initial_request |           1    100.00%    100.00% |           0      0.00%    100.00% |           0      0.00%    100.00% |           0      0.00%    100.00% |           0      0.00%    100.00% |           0      0.00%    100.00% |           0      0.00%    100.00% |           0      0.00%    100.00% |           0      0.00%    100.00% |           0      0.00%    100.00%
system.ruby.Directory.miss_latency_hist_seqr.issue_to_initial_request::total            1                      
system.ruby.Directory.miss_latency_hist_seqr.initial_to_forward::bucket_size            1                      
system.ruby.Directory.miss_latency_hist_seqr.initial_to_forward::max_bucket            9                      
system.ruby.Directory.miss_latency_hist_seqr.initial_to_forward::samples            1                      
system.ruby.Directory.miss_latency_hist_seqr.initial_to_forward::stdev          nan                      
system.ruby.Directory.miss_latency_hist_seqr.initial_to_forward |           1    100.00%    100.00% |           0      0.00%    100.00% |           0      0.00%    100.00% |           0      0.00%    100.00% |           0      0.00%    100.00% |           0      0.00%    100.00% |           0      0.00%    100.00% |           0      0.00%    100.00% |           0      0.00%    100.00% |           0      0.00%    100.00%
system.ruby.Directory.miss_latency_hist_seqr.initial_to_forward::total            1                      
system.ruby.Directory.miss_latency_hist_seqr.forward_to_first_response::bucket_size            1                      
system.ruby.Directory.miss_latency_hist_seqr.forward_to_first_response::max_bucket            9                      
system.ruby.Directory.miss_latency_hist_seqr.forward_to_first_response::samples            1                      
system.ruby.Directory.miss_latency_hist_seqr.forward_to_first_response::stdev          nan                      
system.ruby.Directory.miss_latency_hist_seqr.forward_to_first_response |           1    100.00%    100.00% |           0      0.00%    100.00% |           0      0.00%    100.00% |           0      0.00%    100.00% |           0      0.00%    100.00% |           0      0.00%    100.00% |           0      0.00%    100.00% |           0      0.00%    100.00% |           0      0.00%    100.00% |           0      0.00%    100.00%
system.ruby.Directory.miss_latency_hist_seqr.forward_to_first_response::total            1                      
system.ruby.Directory.miss_latency_hist_seqr.first_response_to_completion::bucket_size            8                      
system.ruby.Directory.miss_latency_hist_seqr.first_response_to_completion::max_bucket           79                      
system.ruby.Directory.miss_latency_hist_seqr.first_response_to_completion::samples            1                      
system.ruby.Directory.miss_latency_hist_seqr.first_response_to_completion::mean           75                      
system.ruby.Directory.miss_latency_hist_seqr.first_response_to_completion::gmean    75.000000                      
system.ruby.Directory.miss_latency_hist_seqr.first_response_to_completion::stdev          nan                      
system.ruby.Directory.miss_latency_hist_seqr.first_response_to_completion |           0      0.00%      0.00% |           0      0.00%      0.00% |           0      0.00%      0.00% |           0      0.00%      0.00% |           0      0.00%      0.00% |           0      0.00%      0.00% |           0      0.00%      0.00% |           0      0.00%      0.00% |           0      0.00%      0.00% |           1    100.00%    100.00%
system.ruby.Directory.miss_latency_hist_seqr.first_response_to_completion::total            1                      
system.ruby.LD.Directory.miss_type_mach_latency_hist_seqr::bucket_size           64                      
system.ruby.LD.Directory.miss_type_mach_latency_hist_seqr::max_bucket          639                      
system.ruby.LD.Directory.miss_type_mach_latency_hist_seqr::samples        12623                      
system.ruby.LD.Directory.miss_type_mach_latency_hist_seqr::mean    52.559693                      
system.ruby.LD.Directory.miss_type_mach_latency_hist_seqr::gmean    46.183238                      
system.ruby.LD.Directory.miss_type_mach_latency_hist_seqr::stdev    34.139513                      
system.ruby.LD.Directory.miss_type_mach_latency_hist_seqr |        7520     59.57%     59.57% |        4779     37.86%     97.43% |         221      1.75%     99.18% |          36      0.29%     99.47% |          38      0.30%     99.77% |          23      0.18%     99.95% |           4      0.03%     99.98% |           1      0.01%     99.99% |           0      0.00%     99.99% |           1      0.01%    100.00%
system.ruby.LD.Directory.miss_type_mach_latency_hist_seqr::total        12623                      
system.ruby.ST.Directory.miss_type_mach_latency_hist_seqr::bucket_size           64                      
system.ruby.ST.Directory.miss_type_mach_latency_hist_seqr::max_bucket          639                      
system.ruby.ST.Directory.miss_type_mach_latency_hist_seqr::samples         5390                      
system.ruby.ST.Directory.miss_type_mach_latency_hist_seqr::mean    43.346753                      
system.ruby.ST.Directory.miss_type_mach_latency_hist_seqr::gmean    38.966782                      
system.ruby.ST.Directory.miss_type_mach_latency_hist_seqr::stdev    30.990026                      
system.ruby.ST.Directory.miss_type_mach_latency_hist_seqr |        4229     78.46%     78.46% |        1070     19.85%     98.31% |          62      1.15%     99.46% |           8      0.15%     99.61% |          10      0.19%     99.80% |           6      0.11%     99.91% |           0      0.00%     99.91% |           1      0.02%     99.93% |           0      0.00%     99.93% |           4      0.07%    100.00%
system.ruby.ST.Directory.miss_type_mach_latency_hist_seqr::total         5390                      
system.ruby.IFETCH.Directory.miss_type_mach_latency_hist_seqr::bucket_size           64                      
system.ruby.IFETCH.Directory.miss_type_mach_latency_hist_seqr::max_bucket          639                      
system.ruby.IFETCH.Directory.miss_type_mach_latency_hist_seqr::samples        10632                      
system.ruby.IFETCH.Directory.miss_type_mach_latency_hist_seqr::mean    59.026147                      
system.ruby.IFETCH.Directory.miss_type_mach_latency_hist_seqr::gmean    52.223378                      
system.ruby.IFETCH.Directory.miss_type_mach_latency_hist_seqr::stdev    36.074822                      
system.ruby.IFETCH.Directory.miss_type_mach_latency_hist_seqr |        4835     45.48%     45.48% |        5432     51.09%     96.57% |         243      2.29%     98.85% |          48      0.45%     99.30% |          42      0.40%     99.70% |          25      0.24%     99.93% |           4      0.04%     99.97% |           1      0.01%     99.98% |           0      0.00%     99.98% |           2      0.02%    100.00%
system.ruby.IFETCH.Directory.miss_type_mach_latency_hist_seqr::total        10632                      
system.ruby.Load_Linked.Directory.miss_type_mach_latency_hist_seqr::bucket_size           32                      
system.ruby.Load_Linked.Directory.miss_type_mach_latency_hist_seqr::max_bucket          319                      
system.ruby.Load_Linked.Directory.miss_type_mach_latency_hist_seqr::samples          192                      
system.ruby.Load_Linked.Directory.miss_type_mach_latency_hist_seqr::mean    56.312500                      
system.ruby.Load_Linked.Directory.miss_type_mach_latency_hist_seqr::gmean    49.908811                      
system.ruby.Load_Linked.Directory.miss_type_mach_latency_hist_seqr::stdev    34.375449                      
system.ruby.Load_Linked.Directory.miss_type_mach_latency_hist_seqr |           0      0.00%      0.00% |          89     46.35%     46.35% |          95     49.48%     95.83% |           1      0.52%     96.35% |           1      0.52%     96.88% |           2      1.04%     97.92% |           3      1.56%     99.48% |           0      0.00%     99.48% |           0      0.00%     99.48% |           1      0.52%    100.00%
system.ruby.Load_Linked.Directory.miss_type_mach_latency_hist_seqr::total          192                      
system.ruby.Directory_Controller.GETX           28837      0.00%      0.00%
system.ruby.Directory_Controller.PUTX           28833      0.00%      0.00%
system.ruby.Directory_Controller.Memory_Data        28837      0.00%      0.00%
system.ruby.Directory_Controller.Memory_Ack        28833      0.00%      0.00%
system.ruby.Directory_Controller.I.GETX         28837      0.00%      0.00%
system.ruby.Directory_Controller.M.PUTX         28833      0.00%      0.00%
system.ruby.Directory_Controller.IM.Memory_Data        28837      0.00%      0.00%
system.ruby.Directory_Controller.MI.Memory_Ack        28833      0.00%      0.00%
system.ruby.L1Cache_Controller.Load             25029      0.00%      0.00%
system.ruby.L1Cache_Controller.Ifetch          134487      0.00%      0.00%
system.ruby.L1Cache_Controller.Store            16576      0.00%      0.00%
system.ruby.L1Cache_Controller.Data             28837      0.00%      0.00%
system.ruby.L1Cache_Controller.Replacement        28833      0.00%      0.00%
system.ruby.L1Cache_Controller.Writeback_Ack        28833      0.00%      0.00%
system.ruby.L1Cache_Controller.I.Load           12623      0.00%      0.00%
system.ruby.L1Cache_Controller.I.Ifetch         10632      0.00%      0.00%
system.ruby.L1Cache_Controller.I.Store           5582      0.00%      0.00%
system.ruby.L1Cache_Controller.M.Load           12406      0.00%      0.00%
system.ruby.L1Cache_Controller.M.Ifetch        123855      0.00%      0.00%
system.ruby.L1Cache_Controller.M.Store          10994      0.00%      0.00%
system.ruby.L1Cache_Controller.M.Replacement        28833      0.00%      0.00%
system.ruby.L1Cache_Controller.MI.Writeback_Ack        28833      0.00%      0.00%
system.ruby.L1Cache_Controller.IS.Data          23255      0.00%      0.00%
system.ruby.L1Cache_Controller.IM.Data           5582      0.00%      0.00%

---------- End Simulation Statistics   ----------
