
---------- Begin Simulation Statistics ----------
sim_seconds                                  0.000222                       # Number of seconds simulated
sim_ticks                                      221941                       # Number of ticks simulated
final_tick                                     221941                       # Number of ticks from beginning of simulation (restored from checkpoints and never reset)
sim_freq                                   1000000000                       # Frequency of simulated ticks
host_tick_rate                                2117650                       # Simulator tick rate (ticks/s)
host_mem_usage                                 149428                       # Number of bytes of host memory used
host_seconds                                     0.10                       # Real time elapsed on the host
system.ruby.l1_cntrl0.cacheMemory.demand_hits           38                       # Number of cache demand hits
system.ruby.l1_cntrl0.cacheMemory.demand_misses          917                       # Number of cache demand misses
system.ruby.l1_cntrl0.cacheMemory.demand_accesses          955                       # Number of cache demand accesses

---------- End Simulation Statistics   ----------
