Redirecting stdout to build/ARM/tests/opt/long/fs/10.linux-boot/arm/linux/realview-switcheroo-full/simout
Redirecting stderr to build/ARM/tests/opt/long/fs/10.linux-boot/arm/linux/realview-switcheroo-full/simerr
gem5 Simulator System.  http://gem5.org
gem5 is copyrighted software; use the --copyright option for details.

gem5 compiled Mar 15 2016 21:26:42
gem5 started Mar 15 2016 21:52:46
gem5 executing on phenom, pid 15993
command line: build/ARM/gem5.opt -d build/ARM/tests/opt/long/fs/10.linux-boot/arm/linux/realview-switcheroo-full -re /home/stever/hg/m5sim.org/gem5/tests/run.py build/ARM/tests/opt/long/fs/10.linux-boot/arm/linux/realview-switcheroo-full

Global frequency set at 1000000000000 ticks per second
