gem5 Simulator System.  http://gem5.org
gem5 is copyrighted software; use the --copyright option for details.

gem5 compiled Jan  4 2013 21:17:24
gem5 started Jan  5 2013 02:09:50
gem5 executing on u200540
command line: build/ARM/gem5.opt -d build/ARM/tests/opt/long/fs/10.linux-boot/arm/linux/realview-switcheroo-full -re tests/run.py build/ARM/tests/opt/long/fs/10.linux-boot/arm/linux/realview-switcheroo-full
Global frequency set at 1000000000000 ticks per second
info: kernel located at: /gem5/dist/binaries/vmlinux.arm.smp.fb.2.6.38.8
info: Using bootloader at address 0x80000000
info: Entering event queue @ 0.  Starting simulation...
Switching CPUs...
Next CPU: TimingSimpleCPU
switching cpus
info: Entering event queue @ 1000000000.  Starting simulation...
Switching CPUs...
Next CPU: DerivO3CPU
info: Entering event queue @ 2000000000.  Starting simulation...
switching cpus
info: Entering event queue @ 2000001000.  Starting simulation...
Switching CPUs...
Next CPU: AtomicSimpleCPU
info: Entering event queue @ 3000001000.  Starting simulation...
switching cpus
info: Entering event queue @ 3000008500.  Starting simulation...
Switching CPUs...
Next CPU: TimingSimpleCPU
switching cpus
info: Entering event queue @ 4000008500.  Starting simulation...
Switching CPUs...
Next CPU: DerivO3CPU
info: Entering event queue @ 5000008500.  Starting simulation...
switching cpus
info: Entering event queue @ 5000009000.  Starting simulation...
Switching CPUs...
Next CPU: AtomicSimpleCPU
info: Entering event queue @ 6000009000.  Starting simulation...
switching cpus
info: Entering event queue @ 6000041500.  Starting simulation...
Switching CPUs...
Next CPU: TimingSimpleCPU
switching cpus
info: Entering event queue @ 7000041500.  Starting simulation...
Switching CPUs...
Next CPU: DerivO3CPU
info: Entering event queue @ 8000041500.  Starting simulation...
switching cpus
info: Entering event queue @ 8000042500.  Starting simulation...
Switching CPUs...
Next CPU: AtomicSimpleCPU
info: Entering event queue @ 9000042500.  Starting simulation...
info: Entering event queue @ 9000050500.  Starting simulation...
info: Entering event queue @ 9000061000.  Starting simulation...
switching cpus
info: Entering event queue @ 9000065500.  Starting simulation...
Switching CPUs...
Next CPU: TimingSimpleCPU
switching cpus
info: Entering event queue @ 10000065500.  Starting simulation...
Switching CPUs...
Next CPU: DerivO3CPU
info: Entering event queue @ 11000065500.  Starting simulation...
switching cpus
info: Entering event queue @ 11000066500.  Starting simulation...
Switching CPUs...
Next CPU: AtomicSimpleCPU
info: Entering event queue @ 12000066500.  Starting simulation...
info: Entering event queue @ 12000080000.  Starting simulation...
switching cpus
info: Entering event queue @ 12000084500.  Starting simulation...
Switching CPUs...
Next CPU: TimingSimpleCPU
switching cpus
info: Entering event queue @ 13000084500.  Starting simulation...
Switching CPUs...
Next CPU: DerivO3CPU
info: Entering event queue @ 14000084500.  Starting simulation...
switching cpus
info: Entering event queue @ 14000088000.  Starting simulation...
Switching CPUs...
Next CPU: AtomicSimpleCPU
info: Entering event queue @ 15000088000.  Starting simulation...
switching cpus
info: Entering event queue @ 15000331000.  Starting simulation...
Switching CPUs...
Next CPU: TimingSimpleCPU
switching cpus
info: Entering event queue @ 16000331000.  Starting simulation...
Switching CPUs...
Next CPU: DerivO3CPU
info: Entering event queue @ 17000331000.  Starting simulation...
switching cpus
info: Entering event queue @ 17000332000.  Starting simulation...
Switching CPUs...
Next CPU: AtomicSimpleCPU
info: Entering event queue @ 18000332000.  Starting simulation...
info: Entering event queue @ 26175972000.  Starting simulation...
info: Entering event queue @ 26175979000.  Starting simulation...
switching cpus
info: Entering event queue @ 26175983500.  Starting simulation...
Switching CPUs...
Next CPU: TimingSimpleCPU
switching cpus
info: Entering event queue @ 27175983500.  Starting simulation...
Switching CPUs...
Next CPU: DerivO3CPU
switching cpus
info: Entering event queue @ 28175983500.  Starting simulation...
Switching CPUs...
Next CPU: AtomicSimpleCPU
info: Entering event queue @ 29175983500.  Starting simulation...
info: Entering event queue @ 36175972000.  Starting simulation...
info: Entering event queue @ 36175979000.  Starting simulation...
switching cpus
info: Entering event queue @ 36175983500.  Starting simulation...
Switching CPUs...
Next CPU: TimingSimpleCPU
info: Entering event queue @ 37175983500.  Starting simulation...
switching cpus
info: Entering event queue @ 37175984000.  Starting simulation...
Switching CPUs...
Next CPU: DerivO3CPU
info: Entering event queue @ 38175984000.  Starting simulation...
info: Entering event queue @ 38175999500.  Starting simulation...
switching cpus
info: Entering event queue @ 38176040500.  Starting simulation...
Switching CPUs...
Next CPU: AtomicSimpleCPU
info: Entering event queue @ 39176040500.  Starting simulation...
switching cpus
info: Entering event queue @ 39176113500.  Starting simulation...
Switching CPUs...
Next CPU: TimingSimpleCPU
switching cpus
info: Entering event queue @ 40176113500.  Starting simulation...
Switching CPUs...
Next CPU: DerivO3CPU
info: Entering event queue @ 41176113500.  Starting simulation...
switching cpus
info: Entering event queue @ 41176114500.  Starting simulation...
Switching CPUs...
Next CPU: AtomicSimpleCPU
info: Entering event queue @ 42176114500.  Starting simulation...
switching cpus
info: Entering event queue @ 42176477500.  Starting simulation...
Switching CPUs...
Next CPU: TimingSimpleCPU
switching cpus
info: Entering event queue @ 43176477500.  Starting simulation...
Switching CPUs...
Next CPU: DerivO3CPU
info: Entering event queue @ 44176477500.  Starting simulation...
switching cpus
info: Entering event queue @ 44176479000.  Starting simulation...
Switching CPUs...
Next CPU: AtomicSimpleCPU
info: Entering event queue @ 45176479000.  Starting simulation...
info: Entering event queue @ 45176488000.  Starting simulation...
switching cpus
info: Entering event queue @ 45176492500.  Starting simulation...
Switching CPUs...
Next CPU: TimingSimpleCPU
switching cpus
info: Entering event queue @ 46176492500.  Starting simulation...
Switching CPUs...
Next CPU: DerivO3CPU
info: Entering event queue @ 47176492500.  Starting simulation...
info: Entering event queue @ 47176497000.  Starting simulation...
switching cpus
info: Entering event queue @ 47176499500.  Starting simulation...
Switching CPUs...
Next CPU: AtomicSimpleCPU
info: Entering event queue @ 48176499500.  Starting simulation...
info: Entering event queue @ 48176506500.  Starting simulation...
info: Entering event queue @ 48176516500.  Starting simulation...
info: Entering event queue @ 48176521000.  Starting simulation...
switching cpus
info: Entering event queue @ 48176522000.  Starting simulation...
Switching CPUs...
Next CPU: TimingSimpleCPU
switching cpus
info: Entering event queue @ 49176522000.  Starting simulation...
Switching CPUs...
Next CPU: DerivO3CPU
switching cpus
info: Entering event queue @ 50176522000.  Starting simulation...
Switching CPUs...
Next CPU: AtomicSimpleCPU
info: Entering event queue @ 51176522000.  Starting simulation...
info: Entering event queue @ 56175972000.  Starting simulation...
info: Entering event queue @ 56175979000.  Starting simulation...
switching cpus
info: Entering event queue @ 56175983500.  Starting simulation...
Switching CPUs...
Next CPU: TimingSimpleCPU
switching cpus
info: Entering event queue @ 57175983500.  Starting simulation...
Switching CPUs...
Next CPU: DerivO3CPU
switching cpus
info: Entering event queue @ 58175983500.  Starting simulation...
Switching CPUs...
Next CPU: AtomicSimpleCPU
info: Entering event queue @ 59175983500.  Starting simulation...
info: Entering event queue @ 66175972000.  Starting simulation...
info: Entering event queue @ 66175979000.  Starting simulation...
switching cpus
info: Entering event queue @ 66175983500.  Starting simulation...
Switching CPUs...
Next CPU: TimingSimpleCPU
switching cpus
info: Entering event queue @ 67175983500.  Starting simulation...
Switching CPUs...
Next CPU: DerivO3CPU
switching cpus
info: Entering event queue @ 68175983500.  Starting simulation...
Switching CPUs...
Next CPU: AtomicSimpleCPU
info: Entering event queue @ 69175983500.  Starting simulation...
info: Entering event queue @ 76175972000.  Starting simulation...
info: Entering event queue @ 76175979000.  Starting simulation...
switching cpus
info: Entering event queue @ 76175983500.  Starting simulation...
Switching CPUs...
Next CPU: TimingSimpleCPU
switching cpus
info: Entering event queue @ 77175983500.  Starting simulation...
Switching CPUs...
Next CPU: DerivO3CPU
switching cpus
info: Entering event queue @ 78175983500.  Starting simulation...
Switching CPUs...
Next CPU: AtomicSimpleCPU
info: Entering event queue @ 79175983500.  Starting simulation...
info: Entering event queue @ 86175972000.  Starting simulation...
info: Entering event queue @ 86175979000.  Starting simulation...
switching cpus
info: Entering event queue @ 86175983500.  Starting simulation...
Switching CPUs...
Next CPU: TimingSimpleCPU
switching cpus
info: Entering event queue @ 87175983500.  Starting simulation...
Switching CPUs...
Next CPU: DerivO3CPU
switching cpus
info: Entering event queue @ 88175983500.  Starting simulation...
Switching CPUs...
Next CPU: AtomicSimpleCPU
info: Entering event queue @ 89175983500.  Starting simulation...
info: Entering event queue @ 96175973000.  Starting simulation...
info: Entering event queue @ 96175982000.  Starting simulation...
switching cpus
info: Entering event queue @ 96175986500.  Starting simulation...
Switching CPUs...
Next CPU: TimingSimpleCPU
switching cpus
info: Entering event queue @ 97175986500.  Starting simulation...
Switching CPUs...
Next CPU: DerivO3CPU
switching cpus
info: Entering event queue @ 98175986500.  Starting simulation...
Switching CPUs...
Next CPU: AtomicSimpleCPU
info: Entering event queue @ 99175986500.  Starting simulation...
info: Entering event queue @ 106175972000.  Starting simulation...
info: Entering event queue @ 106175978500.  Starting simulation...
switching cpus
info: Entering event queue @ 106175979000.  Starting simulation...
Switching CPUs...
Next CPU: TimingSimpleCPU
switching cpus
info: Entering event queue @ 107175979000.  Starting simulation...
Switching CPUs...
Next CPU: DerivO3CPU
switching cpus
info: Entering event queue @ 108175979000.  Starting simulation...
Switching CPUs...
Next CPU: AtomicSimpleCPU
info: Entering event queue @ 109175979000.  Starting simulation...
info: Entering event queue @ 116175972000.  Starting simulation...
info: Entering event queue @ 116175978500.  Starting simulation...
switching cpus
info: Entering event queue @ 116175979000.  Starting simulation...
Switching CPUs...
Next CPU: TimingSimpleCPU
switching cpus
info: Entering event queue @ 117175979000.  Starting simulation...
Switching CPUs...
Next CPU: DerivO3CPU
switching cpus
info: Entering event queue @ 118175979000.  Starting simulation...
Switching CPUs...
Next CPU: AtomicSimpleCPU
info: Entering event queue @ 119175979000.  Starting simulation...
info: Entering event queue @ 126175972000.  Starting simulation...
info: Entering event queue @ 126175978500.  Starting simulation...
switching cpus
info: Entering event queue @ 126175979000.  Starting simulation...
Switching CPUs...
Next CPU: TimingSimpleCPU
switching cpus
info: Entering event queue @ 127175979000.  Starting simulation...
Switching CPUs...
Next CPU: DerivO3CPU
switching cpus
info: Entering event queue @ 128175979000.  Starting simulation...
Switching CPUs...
Next CPU: AtomicSimpleCPU
info: Entering event queue @ 129175979000.  Starting simulation...
info: Entering event queue @ 136175972000.  Starting simulation...
info: Entering event queue @ 136175978500.  Starting simulation...
switching cpus
info: Entering event queue @ 136175979000.  Starting simulation...
Switching CPUs...
Next CPU: TimingSimpleCPU
switching cpus
info: Entering event queue @ 137175979000.  Starting simulation...
Switching CPUs...
Next CPU: DerivO3CPU
switching cpus
info: Entering event queue @ 138175979000.  Starting simulation...
Switching CPUs...
Next CPU: AtomicSimpleCPU
info: Entering event queue @ 139175979000.  Starting simulation...
info: Entering event queue @ 146175972000.  Starting simulation...
info: Entering event queue @ 146175979000.  Starting simulation...
switching cpus
info: Entering event queue @ 146175983500.  Starting simulation...
Switching CPUs...
Next CPU: TimingSimpleCPU
switching cpus
info: Entering event queue @ 147175983500.  Starting simulation...
Switching CPUs...
Next CPU: DerivO3CPU
switching cpus
info: Entering event queue @ 148175983500.  Starting simulation...
Switching CPUs...
Next CPU: AtomicSimpleCPU
info: Entering event queue @ 149175983500.  Starting simulation...
info: Entering event queue @ 156175972000.  Starting simulation...
info: Entering event queue @ 156175979000.  Starting simulation...
switching cpus
info: Entering event queue @ 156175983500.  Starting simulation...
Switching CPUs...
Next CPU: TimingSimpleCPU
switching cpus
info: Entering event queue @ 157175983500.  Starting simulation...
Switching CPUs...
Next CPU: DerivO3CPU
switching cpus
info: Entering event queue @ 158175983500.  Starting simulation...
Switching CPUs...
Next CPU: AtomicSimpleCPU
info: Entering event queue @ 159175983500.  Starting simulation...
info: Entering event queue @ 166175972000.  Starting simulation...
info: Entering event queue @ 166175978500.  Starting simulation...
switching cpus
info: Entering event queue @ 166175979000.  Starting simulation...
Switching CPUs...
Next CPU: TimingSimpleCPU
switching cpus
info: Entering event queue @ 167175979000.  Starting simulation...
Switching CPUs...
Next CPU: DerivO3CPU
switching cpus
info: Entering event queue @ 168175979000.  Starting simulation...
Switching CPUs...
Next CPU: AtomicSimpleCPU
info: Entering event queue @ 169175979000.  Starting simulation...
info: Entering event queue @ 176175972000.  Starting simulation...
info: Entering event queue @ 176175978500.  Starting simulation...
switching cpus
info: Entering event queue @ 176175979000.  Starting simulation...
Switching CPUs...
Next CPU: TimingSimpleCPU
switching cpus
info: Entering event queue @ 177175979000.  Starting simulation...
Switching CPUs...
Next CPU: DerivO3CPU
switching cpus
info: Entering event queue @ 178175979000.  Starting simulation...
Switching CPUs...
Next CPU: AtomicSimpleCPU
info: Entering event queue @ 179175979000.  Starting simulation...
info: Entering event queue @ 186175972000.  Starting simulation...
info: Entering event queue @ 186175978500.  Starting simulation...
switching cpus
info: Entering event queue @ 186175979000.  Starting simulation...
Switching CPUs...
Next CPU: TimingSimpleCPU
switching cpus
info: Entering event queue @ 187175979000.  Starting simulation...
Switching CPUs...
Next CPU: DerivO3CPU
switching cpus
info: Entering event queue @ 188175979000.  Starting simulation...
Switching CPUs...
Next CPU: AtomicSimpleCPU
info: Entering event queue @ 189175979000.  Starting simulation...
info: Entering event queue @ 196175972000.  Starting simulation...
info: Entering event queue @ 196175978500.  Starting simulation...
switching cpus
info: Entering event queue @ 196175979000.  Starting simulation...
Switching CPUs...
Next CPU: TimingSimpleCPU
switching cpus
info: Entering event queue @ 197175979000.  Starting simulation...
Switching CPUs...
Next CPU: DerivO3CPU
switching cpus
info: Entering event queue @ 198175979000.  Starting simulation...
Switching CPUs...
Next CPU: AtomicSimpleCPU
info: Entering event queue @ 199175979000.  Starting simulation...
info: Entering event queue @ 206175972000.  Starting simulation...
info: Entering event queue @ 206175979000.  Starting simulation...
switching cpus
info: Entering event queue @ 206175983500.  Starting simulation...
Switching CPUs...
Next CPU: TimingSimpleCPU
switching cpus
info: Entering event queue @ 207175983500.  Starting simulation...
Switching CPUs...
Next CPU: DerivO3CPU
switching cpus
info: Entering event queue @ 208175983500.  Starting simulation...
Switching CPUs...
Next CPU: AtomicSimpleCPU
info: Entering event queue @ 209175983500.  Starting simulation...
info: Entering event queue @ 216175972000.  Starting simulation...
info: Entering event queue @ 216175979000.  Starting simulation...
switching cpus
info: Entering event queue @ 216175983500.  Starting simulation...
Switching CPUs...
Next CPU: TimingSimpleCPU
switching cpus
info: Entering event queue @ 217175983500.  Starting simulation...
Switching CPUs...
Next CPU: DerivO3CPU
switching cpus
info: Entering event queue @ 218175983500.  Starting simulation...
Switching CPUs...
Next CPU: AtomicSimpleCPU
info: Entering event queue @ 219175983500.  Starting simulation...
info: Entering event queue @ 226175972000.  Starting simulation...
info: Entering event queue @ 226175979000.  Starting simulation...
switching cpus
info: Entering event queue @ 226175983500.  Starting simulation...
Switching CPUs...
Next CPU: TimingSimpleCPU
switching cpus
info: Entering event queue @ 227175983500.  Starting simulation...
Switching CPUs...
Next CPU: DerivO3CPU
switching cpus
info: Entering event queue @ 228175983500.  Starting simulation...
Switching CPUs...
Next CPU: AtomicSimpleCPU
info: Entering event queue @ 229175983500.  Starting simulation...
info: Entering event queue @ 236175972000.  Starting simulation...
info: Entering event queue @ 236175979000.  Starting simulation...
switching cpus
info: Entering event queue @ 236175983500.  Starting simulation...
Switching CPUs...
Next CPU: TimingSimpleCPU
switching cpus
info: Entering event queue @ 237175983500.  Starting simulation...
Switching CPUs...
Next CPU: DerivO3CPU
switching cpus
info: Entering event queue @ 238175983500.  Starting simulation...
Switching CPUs...
Next CPU: AtomicSimpleCPU
info: Entering event queue @ 239175983500.  Starting simulation...
info: Entering event queue @ 246175972000.  Starting simulation...
info: Entering event queue @ 246175979000.  Starting simulation...
switching cpus
info: Entering event queue @ 246175983500.  Starting simulation...
Switching CPUs...
Next CPU: TimingSimpleCPU
switching cpus
info: Entering event queue @ 247175983500.  Starting simulation...
Switching CPUs...
Next CPU: DerivO3CPU
switching cpus
info: Entering event queue @ 248175983500.  Starting simulation...
Switching CPUs...
Next CPU: AtomicSimpleCPU
info: Entering event queue @ 249175983500.  Starting simulation...
info: Entering event queue @ 256175973000.  Starting simulation...
info: Entering event queue @ 256175984500.  Starting simulation...
switching cpus
info: Entering event queue @ 256175989000.  Starting simulation...
Switching CPUs...
Next CPU: TimingSimpleCPU
switching cpus
info: Entering event queue @ 257175989000.  Starting simulation...
Switching CPUs...
Next CPU: DerivO3CPU
switching cpus
info: Entering event queue @ 258175989000.  Starting simulation...
Switching CPUs...
Next CPU: AtomicSimpleCPU
info: Entering event queue @ 259175989000.  Starting simulation...
info: Entering event queue @ 266175972000.  Starting simulation...
info: Entering event queue @ 266979463000.  Starting simulation...
switching cpus
info: Entering event queue @ 266979465000.  Starting simulation...
Switching CPUs...
Next CPU: TimingSimpleCPU
switching cpus
info: Entering event queue @ 267979465000.  Starting simulation...
Switching CPUs...
Next CPU: DerivO3CPU
switching cpus
info: Entering event queue @ 268979465000.  Starting simulation...
Switching CPUs...
Next CPU: AtomicSimpleCPU
info: Entering event queue @ 269979465000.  Starting simulation...
info: Entering event queue @ 276175972000.  Starting simulation...
info: Entering event queue @ 276175978500.  Starting simulation...
switching cpus
info: Entering event queue @ 276175979000.  Starting simulation...
Switching CPUs...
Next CPU: TimingSimpleCPU
switching cpus
info: Entering event queue @ 277175979000.  Starting simulation...
Switching CPUs...
Next CPU: DerivO3CPU
switching cpus
info: Entering event queue @ 278175979000.  Starting simulation...
Switching CPUs...
Next CPU: AtomicSimpleCPU
info: Entering event queue @ 279175979000.  Starting simulation...
info: Entering event queue @ 286175972000.  Starting simulation...
info: Entering event queue @ 286175978500.  Starting simulation...
switching cpus
info: Entering event queue @ 286175979000.  Starting simulation...
Switching CPUs...
Next CPU: TimingSimpleCPU
switching cpus
info: Entering event queue @ 287175979000.  Starting simulation...
Switching CPUs...
Next CPU: DerivO3CPU
switching cpus
info: Entering event queue @ 288175979000.  Starting simulation...
Switching CPUs...
Next CPU: AtomicSimpleCPU
info: Entering event queue @ 289175979000.  Starting simulation...
info: Entering event queue @ 296175972000.  Starting simulation...
info: Entering event queue @ 296175978500.  Starting simulation...
switching cpus
info: Entering event queue @ 296175979000.  Starting simulation...
Switching CPUs...
Next CPU: TimingSimpleCPU
switching cpus
info: Entering event queue @ 297175979000.  Starting simulation...
Switching CPUs...
Next CPU: DerivO3CPU
info: Entering event queue @ 298175979000.  Starting simulation...
info: Entering event queue @ 299715607000.  Starting simulation...
switching cpus
info: Entering event queue @ 299715609000.  Starting simulation...
Switching CPUs...
Next CPU: AtomicSimpleCPU
info: Entering event queue @ 300715609000.  Starting simulation...
info: Entering event queue @ 306175972000.  Starting simulation...
info: Entering event queue @ 306175979000.  Starting simulation...
switching cpus
info: Entering event queue @ 306175983500.  Starting simulation...
Switching CPUs...
Next CPU: TimingSimpleCPU
switching cpus
info: Entering event queue @ 307175983500.  Starting simulation...
Switching CPUs...
Next CPU: DerivO3CPU
switching cpus
info: Entering event queue @ 308175983500.  Starting simulation...
Switching CPUs...
Next CPU: AtomicSimpleCPU
info: Entering event queue @ 309175983500.  Starting simulation...
info: Entering event queue @ 316175972000.  Starting simulation...
info: Entering event queue @ 316175979000.  Starting simulation...
switching cpus
info: Entering event queue @ 316175983500.  Starting simulation...
Switching CPUs...
Next CPU: TimingSimpleCPU
switching cpus
info: Entering event queue @ 317175983500.  Starting simulation...
Switching CPUs...
Next CPU: DerivO3CPU
switching cpus
info: Entering event queue @ 318175983500.  Starting simulation...
Switching CPUs...
Next CPU: AtomicSimpleCPU
info: Entering event queue @ 319175983500.  Starting simulation...
info: Entering event queue @ 326175972000.  Starting simulation...
info: Entering event queue @ 326175978500.  Starting simulation...
switching cpus
info: Entering event queue @ 326175979000.  Starting simulation...
Switching CPUs...
Next CPU: TimingSimpleCPU
switching cpus
info: Entering event queue @ 327175979000.  Starting simulation...
Switching CPUs...
Next CPU: DerivO3CPU
switching cpus
info: Entering event queue @ 328175979000.  Starting simulation...
Switching CPUs...
Next CPU: AtomicSimpleCPU
info: Entering event queue @ 329175979000.  Starting simulation...
info: Entering event queue @ 336175972000.  Starting simulation...
info: Entering event queue @ 336175978500.  Starting simulation...
switching cpus
info: Entering event queue @ 336175979000.  Starting simulation...
Switching CPUs...
Next CPU: TimingSimpleCPU
switching cpus
info: Entering event queue @ 337175979000.  Starting simulation...
Switching CPUs...
Next CPU: DerivO3CPU
switching cpus
info: Entering event queue @ 338175979000.  Starting simulation...
Switching CPUs...
Next CPU: AtomicSimpleCPU
info: Entering event queue @ 339175979000.  Starting simulation...
info: Entering event queue @ 346175972000.  Starting simulation...
info: Entering event queue @ 346175978500.  Starting simulation...
switching cpus
info: Entering event queue @ 346175979000.  Starting simulation...
Switching CPUs...
Next CPU: TimingSimpleCPU
switching cpus
info: Entering event queue @ 347175979000.  Starting simulation...
Switching CPUs...
Next CPU: DerivO3CPU
switching cpus
info: Entering event queue @ 348175979000.  Starting simulation...
Switching CPUs...
Next CPU: AtomicSimpleCPU
info: Entering event queue @ 349175979000.  Starting simulation...
info: Entering event queue @ 356175972000.  Starting simulation...
info: Entering event queue @ 356175978500.  Starting simulation...
switching cpus
info: Entering event queue @ 356175979000.  Starting simulation...
Switching CPUs...
Next CPU: TimingSimpleCPU
switching cpus
info: Entering event queue @ 357175979000.  Starting simulation...
Switching CPUs...
Next CPU: DerivO3CPU
switching cpus
info: Entering event queue @ 358175979000.  Starting simulation...
Switching CPUs...
Next CPU: AtomicSimpleCPU
info: Entering event queue @ 359175979000.  Starting simulation...
info: Entering event queue @ 366175972000.  Starting simulation...
info: Entering event queue @ 366175979000.  Starting simulation...
switching cpus
info: Entering event queue @ 366175983500.  Starting simulation...
Switching CPUs...
Next CPU: TimingSimpleCPU
switching cpus
info: Entering event queue @ 367175983500.  Starting simulation...
Switching CPUs...
Next CPU: DerivO3CPU
switching cpus
info: Entering event queue @ 368175983500.  Starting simulation...
Switching CPUs...
Next CPU: AtomicSimpleCPU
info: Entering event queue @ 369175983500.  Starting simulation...
info: Entering event queue @ 376175972000.  Starting simulation...
info: Entering event queue @ 376175979000.  Starting simulation...
switching cpus
info: Entering event queue @ 376175983500.  Starting simulation...
Switching CPUs...
Next CPU: TimingSimpleCPU
switching cpus
info: Entering event queue @ 377175983500.  Starting simulation...
Switching CPUs...
Next CPU: DerivO3CPU
switching cpus
info: Entering event queue @ 378175983500.  Starting simulation...
Switching CPUs...
Next CPU: AtomicSimpleCPU
info: Entering event queue @ 379175983500.  Starting simulation...
info: Entering event queue @ 386175973000.  Starting simulation...
info: Entering event queue @ 386175980000.  Starting simulation...
switching cpus
info: Entering event queue @ 386175984500.  Starting simulation...
Switching CPUs...
Next CPU: TimingSimpleCPU
switching cpus
info: Entering event queue @ 387175984500.  Starting simulation...
Switching CPUs...
Next CPU: DerivO3CPU
switching cpus
info: Entering event queue @ 388175984500.  Starting simulation...
Switching CPUs...
Next CPU: AtomicSimpleCPU
info: Entering event queue @ 389175984500.  Starting simulation...
switching cpus
info: Entering event queue @ 396175973000.  Starting simulation...
Switching CPUs...
Next CPU: TimingSimpleCPU
switching cpus
info: Entering event queue @ 397175973000.  Starting simulation...
Switching CPUs...
Next CPU: DerivO3CPU
switching cpus
info: Entering event queue @ 398175973000.  Starting simulation...
Switching CPUs...
Next CPU: AtomicSimpleCPU
info: Entering event queue @ 399175973000.  Starting simulation...
info: Entering event queue @ 406175973000.  Starting simulation...
info: Entering event queue @ 406175981500.  Starting simulation...
switching cpus
info: Entering event queue @ 406175986000.  Starting simulation...
Switching CPUs...
Next CPU: TimingSimpleCPU
switching cpus
info: Entering event queue @ 407175986000.  Starting simulation...
Switching CPUs...
Next CPU: DerivO3CPU
switching cpus
info: Entering event queue @ 408175986000.  Starting simulation...
Switching CPUs...
Next CPU: AtomicSimpleCPU
info: Entering event queue @ 409175986000.  Starting simulation...
info: Entering event queue @ 416175972000.  Starting simulation...
info: Entering event queue @ 416175979000.  Starting simulation...
switching cpus
info: Entering event queue @ 416175983500.  Starting simulation...
Switching CPUs...
Next CPU: TimingSimpleCPU
switching cpus
info: Entering event queue @ 417175983500.  Starting simulation...
Switching CPUs...
Next CPU: DerivO3CPU
switching cpus
info: Entering event queue @ 418175983500.  Starting simulation...
Switching CPUs...
Next CPU: AtomicSimpleCPU
info: Entering event queue @ 419175983500.  Starting simulation...
info: Entering event queue @ 426175972000.  Starting simulation...
info: Entering event queue @ 426175978500.  Starting simulation...
switching cpus
info: Entering event queue @ 426175979000.  Starting simulation...
Switching CPUs...
Next CPU: TimingSimpleCPU
switching cpus
info: Entering event queue @ 427175979000.  Starting simulation...
Switching CPUs...
Next CPU: DerivO3CPU
switching cpus
info: Entering event queue @ 428175979000.  Starting simulation...
Switching CPUs...
Next CPU: AtomicSimpleCPU
info: Entering event queue @ 429175979000.  Starting simulation...
info: Entering event queue @ 436175972000.  Starting simulation...
info: Entering event queue @ 436175978500.  Starting simulation...
switching cpus
info: Entering event queue @ 436175979000.  Starting simulation...
Switching CPUs...
Next CPU: TimingSimpleCPU
switching cpus
info: Entering event queue @ 437175979000.  Starting simulation...
Switching CPUs...
Next CPU: DerivO3CPU
switching cpus
info: Entering event queue @ 438175979000.  Starting simulation...
Switching CPUs...
Next CPU: AtomicSimpleCPU
info: Entering event queue @ 439175979000.  Starting simulation...
info: Entering event queue @ 446175972000.  Starting simulation...
info: Entering event queue @ 446175978500.  Starting simulation...
switching cpus
info: Entering event queue @ 446175979000.  Starting simulation...
Switching CPUs...
Next CPU: TimingSimpleCPU
switching cpus
info: Entering event queue @ 447175979000.  Starting simulation...
Switching CPUs...
Next CPU: DerivO3CPU
switching cpus
info: Entering event queue @ 448175979000.  Starting simulation...
Switching CPUs...
Next CPU: AtomicSimpleCPU
info: Entering event queue @ 449175979000.  Starting simulation...
info: Entering event queue @ 456175972000.  Starting simulation...
info: Entering event queue @ 456175978500.  Starting simulation...
switching cpus
info: Entering event queue @ 456175979000.  Starting simulation...
Switching CPUs...
Next CPU: TimingSimpleCPU
switching cpus
info: Entering event queue @ 457175979000.  Starting simulation...
Switching CPUs...
Next CPU: DerivO3CPU
switching cpus
info: Entering event queue @ 458175979000.  Starting simulation...
Switching CPUs...
Next CPU: AtomicSimpleCPU
info: Entering event queue @ 459175979000.  Starting simulation...
info: Entering event queue @ 466175972000.  Starting simulation...
info: Entering event queue @ 466175979000.  Starting simulation...
switching cpus
info: Entering event queue @ 466175983500.  Starting simulation...
Switching CPUs...
Next CPU: TimingSimpleCPU
switching cpus
info: Entering event queue @ 467175983500.  Starting simulation...
Switching CPUs...
Next CPU: DerivO3CPU
switching cpus
info: Entering event queue @ 468175983500.  Starting simulation...
Switching CPUs...
Next CPU: AtomicSimpleCPU
info: Entering event queue @ 469175983500.  Starting simulation...
info: Entering event queue @ 476175972000.  Starting simulation...
info: Entering event queue @ 476175979000.  Starting simulation...
switching cpus
info: Entering event queue @ 476175983500.  Starting simulation...
Switching CPUs...
Next CPU: TimingSimpleCPU
switching cpus
info: Entering event queue @ 477175983500.  Starting simulation...
Switching CPUs...
Next CPU: DerivO3CPU
switching cpus
info: Entering event queue @ 478175983500.  Starting simulation...
Switching CPUs...
Next CPU: AtomicSimpleCPU
info: Entering event queue @ 479175983500.  Starting simulation...
info: Entering event queue @ 486175972000.  Starting simulation...
info: Entering event queue @ 486175978500.  Starting simulation...
switching cpus
info: Entering event queue @ 486175979000.  Starting simulation...
Switching CPUs...
Next CPU: TimingSimpleCPU
switching cpus
info: Entering event queue @ 487175979000.  Starting simulation...
Switching CPUs...
Next CPU: DerivO3CPU
switching cpus
info: Entering event queue @ 488175979000.  Starting simulation...
Switching CPUs...
Next CPU: AtomicSimpleCPU
info: Entering event queue @ 489175979000.  Starting simulation...
info: Entering event queue @ 496175972000.  Starting simulation...
info: Entering event queue @ 496175978500.  Starting simulation...
switching cpus
info: Entering event queue @ 496175979000.  Starting simulation...
Switching CPUs...
Next CPU: TimingSimpleCPU
switching cpus
info: Entering event queue @ 497175979000.  Starting simulation...
Switching CPUs...
Next CPU: DerivO3CPU
switching cpus
info: Entering event queue @ 498175979000.  Starting simulation...
Switching CPUs...
Next CPU: AtomicSimpleCPU
info: Entering event queue @ 499175979000.  Starting simulation...
info: Entering event queue @ 506175972000.  Starting simulation...
info: Entering event queue @ 506175978500.  Starting simulation...
switching cpus
info: Entering event queue @ 506175979000.  Starting simulation...
Switching CPUs...
Next CPU: TimingSimpleCPU
switching cpus
info: Entering event queue @ 507175979000.  Starting simulation...
Switching CPUs...
Next CPU: DerivO3CPU
switching cpus
info: Entering event queue @ 508175979000.  Starting simulation...
Switching CPUs...
Next CPU: AtomicSimpleCPU
info: Entering event queue @ 509175979000.  Starting simulation...
info: Entering event queue @ 516175972000.  Starting simulation...
info: Entering event queue @ 516175978500.  Starting simulation...
switching cpus
info: Entering event queue @ 516175979000.  Starting simulation...
Switching CPUs...
Next CPU: TimingSimpleCPU
switching cpus
info: Entering event queue @ 517175979000.  Starting simulation...
Switching CPUs...
Next CPU: DerivO3CPU
switching cpus
info: Entering event queue @ 518175979000.  Starting simulation...
Switching CPUs...
Next CPU: AtomicSimpleCPU
info: Entering event queue @ 519175979000.  Starting simulation...
info: Entering event queue @ 526175972000.  Starting simulation...
info: Entering event queue @ 526175979000.  Starting simulation...
switching cpus
info: Entering event queue @ 526175983500.  Starting simulation...
Switching CPUs...
Next CPU: TimingSimpleCPU
switching cpus
info: Entering event queue @ 527175983500.  Starting simulation...
Switching CPUs...
Next CPU: DerivO3CPU
info: Entering event queue @ 528175983500.  Starting simulation...
info: Entering event queue @ 528869056000.  Starting simulation...
switching cpus
info: Entering event queue @ 528869058000.  Starting simulation...
Switching CPUs...
Next CPU: AtomicSimpleCPU
info: Entering event queue @ 529869058000.  Starting simulation...
info: Entering event queue @ 536175972000.  Starting simulation...
info: Entering event queue @ 536175979000.  Starting simulation...
switching cpus
info: Entering event queue @ 536175983500.  Starting simulation...
Switching CPUs...
Next CPU: TimingSimpleCPU
switching cpus
info: Entering event queue @ 537175983500.  Starting simulation...
Switching CPUs...
Next CPU: DerivO3CPU
switching cpus
info: Entering event queue @ 538175983500.  Starting simulation...
Switching CPUs...
Next CPU: AtomicSimpleCPU
info: Entering event queue @ 539175983500.  Starting simulation...
switching cpus
info: Entering event queue @ 546175973000.  Starting simulation...
Switching CPUs...
Next CPU: TimingSimpleCPU
switching cpus
info: Entering event queue @ 547175973000.  Starting simulation...
Switching CPUs...
Next CPU: DerivO3CPU
switching cpus
info: Entering event queue @ 548175973000.  Starting simulation...
Switching CPUs...
Next CPU: AtomicSimpleCPU
info: Entering event queue @ 549175973000.  Starting simulation...
info: Entering event queue @ 556175973000.  Starting simulation...
info: Entering event queue @ 556175985000.  Starting simulation...
switching cpus
info: Entering event queue @ 556175989500.  Starting simulation...
Switching CPUs...
Next CPU: TimingSimpleCPU
switching cpus
info: Entering event queue @ 557175989500.  Starting simulation...
Switching CPUs...
Next CPU: DerivO3CPU
switching cpus
info: Entering event queue @ 558175989500.  Starting simulation...
Switching CPUs...
Next CPU: AtomicSimpleCPU
info: Entering event queue @ 559175989500.  Starting simulation...
switching cpus
info: Entering event queue @ 566175973000.  Starting simulation...
Switching CPUs...
Next CPU: TimingSimpleCPU
switching cpus
info: Entering event queue @ 567175973000.  Starting simulation...
Switching CPUs...
Next CPU: DerivO3CPU
switching cpus
info: Entering event queue @ 568175973000.  Starting simulation...
Switching CPUs...
Next CPU: AtomicSimpleCPU
info: Entering event queue @ 569175973000.  Starting simulation...
switching cpus
info: Entering event queue @ 576175973000.  Starting simulation...
Switching CPUs...
Next CPU: TimingSimpleCPU
switching cpus
info: Entering event queue @ 577175973000.  Starting simulation...
Switching CPUs...
Next CPU: DerivO3CPU
switching cpus
info: Entering event queue @ 578175973000.  Starting simulation...
Switching CPUs...
Next CPU: AtomicSimpleCPU
info: Entering event queue @ 579175973000.  Starting simulation...
switching cpus
info: Entering event queue @ 586175973000.  Starting simulation...
Switching CPUs...
Next CPU: TimingSimpleCPU
switching cpus
info: Entering event queue @ 587175973000.  Starting simulation...
Switching CPUs...
Next CPU: DerivO3CPU
switching cpus
info: Entering event queue @ 588175973000.  Starting simulation...
Switching CPUs...
Next CPU: AtomicSimpleCPU
info: Entering event queue @ 589175973000.  Starting simulation...
info: Entering event queue @ 596175973000.  Starting simulation...
info: Entering event queue @ 596175981500.  Starting simulation...
switching cpus
info: Entering event queue @ 596175986000.  Starting simulation...
Switching CPUs...
Next CPU: TimingSimpleCPU
switching cpus
info: Entering event queue @ 597175986000.  Starting simulation...
Switching CPUs...
Next CPU: DerivO3CPU
switching cpus
info: Entering event queue @ 598175986000.  Starting simulation...
Switching CPUs...
Next CPU: AtomicSimpleCPU
info: Entering event queue @ 599175986000.  Starting simulation...
switching cpus
info: Entering event queue @ 606175973000.  Starting simulation...
Switching CPUs...
Next CPU: TimingSimpleCPU
switching cpus
info: Entering event queue @ 607175973000.  Starting simulation...
Switching CPUs...
Next CPU: DerivO3CPU
switching cpus
info: Entering event queue @ 608175973000.  Starting simulation...
Switching CPUs...
Next CPU: AtomicSimpleCPU
info: Entering event queue @ 609175973000.  Starting simulation...
info: Entering event queue @ 616175972000.  Starting simulation...
info: Entering event queue @ 616175978500.  Starting simulation...
switching cpus
info: Entering event queue @ 616175979000.  Starting simulation...
Switching CPUs...
Next CPU: TimingSimpleCPU
switching cpus
info: Entering event queue @ 617175979000.  Starting simulation...
Switching CPUs...
Next CPU: DerivO3CPU
switching cpus
info: Entering event queue @ 618175979000.  Starting simulation...
Switching CPUs...
Next CPU: AtomicSimpleCPU
info: Entering event queue @ 619175979000.  Starting simulation...
info: Entering event queue @ 626175972000.  Starting simulation...
info: Entering event queue @ 627078091000.  Starting simulation...
switching cpus
info: Entering event queue @ 627078093000.  Starting simulation...
Switching CPUs...
Next CPU: TimingSimpleCPU
switching cpus
info: Entering event queue @ 628078093000.  Starting simulation...
Switching CPUs...
Next CPU: DerivO3CPU
switching cpus
info: Entering event queue @ 629078093000.  Starting simulation...
Switching CPUs...
Next CPU: AtomicSimpleCPU
info: Entering event queue @ 630078093000.  Starting simulation...
info: Entering event queue @ 636175972000.  Starting simulation...
info: Entering event queue @ 636175978500.  Starting simulation...
switching cpus
info: Entering event queue @ 636175979000.  Starting simulation...
Switching CPUs...
Next CPU: TimingSimpleCPU
switching cpus
info: Entering event queue @ 637175979000.  Starting simulation...
Switching CPUs...
Next CPU: DerivO3CPU
switching cpus
info: Entering event queue @ 638175979000.  Starting simulation...
Switching CPUs...
Next CPU: AtomicSimpleCPU
info: Entering event queue @ 639175979000.  Starting simulation...
info: Entering event queue @ 646175972000.  Starting simulation...
info: Entering event queue @ 646175978500.  Starting simulation...
switching cpus
info: Entering event queue @ 646175979000.  Starting simulation...
Switching CPUs...
Next CPU: TimingSimpleCPU
switching cpus
info: Entering event queue @ 647175979000.  Starting simulation...
Switching CPUs...
Next CPU: DerivO3CPU
switching cpus
info: Entering event queue @ 648175979000.  Starting simulation...
Switching CPUs...
Next CPU: AtomicSimpleCPU
info: Entering event queue @ 649175979000.  Starting simulation...
info: Entering event queue @ 656175972000.  Starting simulation...
info: Entering event queue @ 656175979000.  Starting simulation...
switching cpus
info: Entering event queue @ 656175983500.  Starting simulation...
Switching CPUs...
Next CPU: TimingSimpleCPU
switching cpus
info: Entering event queue @ 657175983500.  Starting simulation...
Switching CPUs...
Next CPU: DerivO3CPU
info: Entering event queue @ 658175983500.  Starting simulation...
info: Entering event queue @ 659814382000.  Starting simulation...
switching cpus
info: Entering event queue @ 659814384000.  Starting simulation...
Switching CPUs...
Next CPU: AtomicSimpleCPU
info: Entering event queue @ 660814384000.  Starting simulation...
info: Entering event queue @ 666175972000.  Starting simulation...
info: Entering event queue @ 666175979000.  Starting simulation...
switching cpus
info: Entering event queue @ 666175983500.  Starting simulation...
Switching CPUs...
Next CPU: TimingSimpleCPU
switching cpus
info: Entering event queue @ 667175983500.  Starting simulation...
Switching CPUs...
Next CPU: DerivO3CPU
switching cpus
info: Entering event queue @ 668175983500.  Starting simulation...
Switching CPUs...
Next CPU: AtomicSimpleCPU
info: Entering event queue @ 669175983500.  Starting simulation...
info: Entering event queue @ 676175972000.  Starting simulation...
info: Entering event queue @ 676175978500.  Starting simulation...
switching cpus
info: Entering event queue @ 676175979000.  Starting simulation...
Switching CPUs...
Next CPU: TimingSimpleCPU
switching cpus
info: Entering event queue @ 677175979000.  Starting simulation...
Switching CPUs...
Next CPU: DerivO3CPU
switching cpus
info: Entering event queue @ 678175979000.  Starting simulation...
Switching CPUs...
Next CPU: AtomicSimpleCPU
info: Entering event queue @ 679175979000.  Starting simulation...
info: Entering event queue @ 686175972000.  Starting simulation...
info: Entering event queue @ 686175978500.  Starting simulation...
switching cpus
info: Entering event queue @ 686175979000.  Starting simulation...
Switching CPUs...
Next CPU: TimingSimpleCPU
switching cpus
info: Entering event queue @ 687175979000.  Starting simulation...
Switching CPUs...
Next CPU: DerivO3CPU
switching cpus
info: Entering event queue @ 688175979000.  Starting simulation...
Switching CPUs...
Next CPU: AtomicSimpleCPU
info: Entering event queue @ 689175979000.  Starting simulation...
info: Entering event queue @ 696175972000.  Starting simulation...
info: Entering event queue @ 696175978500.  Starting simulation...
switching cpus
info: Entering event queue @ 696175979000.  Starting simulation...
Switching CPUs...
Next CPU: TimingSimpleCPU
switching cpus
info: Entering event queue @ 697175979000.  Starting simulation...
Switching CPUs...
Next CPU: DerivO3CPU
switching cpus
info: Entering event queue @ 698175979000.  Starting simulation...
Switching CPUs...
Next CPU: AtomicSimpleCPU
info: Entering event queue @ 699175979000.  Starting simulation...
info: Entering event queue @ 706175972000.  Starting simulation...
info: Entering event queue @ 706175978500.  Starting simulation...
switching cpus
info: Entering event queue @ 706175979000.  Starting simulation...
Switching CPUs...
Next CPU: TimingSimpleCPU
switching cpus
info: Entering event queue @ 707175979000.  Starting simulation...
Switching CPUs...
Next CPU: DerivO3CPU
switching cpus
info: Entering event queue @ 708175979000.  Starting simulation...
Switching CPUs...
Next CPU: AtomicSimpleCPU
info: Entering event queue @ 709175979000.  Starting simulation...
info: Entering event queue @ 716175972000.  Starting simulation...
info: Entering event queue @ 716175979000.  Starting simulation...
switching cpus
info: Entering event queue @ 716175983500.  Starting simulation...
Switching CPUs...
Next CPU: TimingSimpleCPU
switching cpus
info: Entering event queue @ 717175983500.  Starting simulation...
Switching CPUs...
Next CPU: DerivO3CPU
switching cpus
info: Entering event queue @ 718175983500.  Starting simulation...
Switching CPUs...
Next CPU: AtomicSimpleCPU
info: Entering event queue @ 719175983500.  Starting simulation...
info: Entering event queue @ 726175972000.  Starting simulation...
info: Entering event queue @ 726175979000.  Starting simulation...
switching cpus
info: Entering event queue @ 726175983500.  Starting simulation...
Switching CPUs...
Next CPU: TimingSimpleCPU
switching cpus
info: Entering event queue @ 727175983500.  Starting simulation...
Switching CPUs...
Next CPU: DerivO3CPU
switching cpus
info: Entering event queue @ 728175983500.  Starting simulation...
Switching CPUs...
Next CPU: AtomicSimpleCPU
info: Entering event queue @ 729175983500.  Starting simulation...
info: Entering event queue @ 736175973000.  Starting simulation...
info: Entering event queue @ 736175981000.  Starting simulation...
switching cpus
info: Entering event queue @ 736175985500.  Starting simulation...
Switching CPUs...
Next CPU: TimingSimpleCPU
switching cpus
info: Entering event queue @ 737175985500.  Starting simulation...
Switching CPUs...
Next CPU: DerivO3CPU
switching cpus
info: Entering event queue @ 738175985500.  Starting simulation...
Switching CPUs...
Next CPU: AtomicSimpleCPU
info: Entering event queue @ 739175985500.  Starting simulation...
info: Entering event queue @ 746175973000.  Starting simulation...
info: Entering event queue @ 746175980500.  Starting simulation...
switching cpus
info: Entering event queue @ 746175985000.  Starting simulation...
Switching CPUs...
Next CPU: TimingSimpleCPU
switching cpus
info: Entering event queue @ 747175985000.  Starting simulation...
Switching CPUs...
Next CPU: DerivO3CPU
switching cpus
info: Entering event queue @ 748175985000.  Starting simulation...
Switching CPUs...
Next CPU: AtomicSimpleCPU
info: Entering event queue @ 749175985000.  Starting simulation...
info: Entering event queue @ 756175972000.  Starting simulation...
info: Entering event queue @ 756175979000.  Starting simulation...
switching cpus
info: Entering event queue @ 756175983500.  Starting simulation...
Switching CPUs...
Next CPU: TimingSimpleCPU
switching cpus
info: Entering event queue @ 757175983500.  Starting simulation...
Switching CPUs...
Next CPU: DerivO3CPU
switching cpus
info: Entering event queue @ 758175983500.  Starting simulation...
Switching CPUs...
Next CPU: AtomicSimpleCPU
info: Entering event queue @ 759175983500.  Starting simulation...
info: Entering event queue @ 766175973000.  Starting simulation...
info: Entering event queue @ 766175980000.  Starting simulation...
switching cpus
info: Entering event queue @ 766175984500.  Starting simulation...
Switching CPUs...
Next CPU: TimingSimpleCPU
switching cpus
info: Entering event queue @ 767175984500.  Starting simulation...
Switching CPUs...
Next CPU: DerivO3CPU
switching cpus
info: Entering event queue @ 768175984500.  Starting simulation...
Switching CPUs...
Next CPU: AtomicSimpleCPU
info: Entering event queue @ 769175984500.  Starting simulation...
info: Entering event queue @ 776175972000.  Starting simulation...
info: Entering event queue @ 776175978500.  Starting simulation...
switching cpus
info: Entering event queue @ 776175979000.  Starting simulation...
Switching CPUs...
Next CPU: TimingSimpleCPU
switching cpus
info: Entering event queue @ 777175979000.  Starting simulation...
Switching CPUs...
Next CPU: DerivO3CPU
switching cpus
info: Entering event queue @ 778175979000.  Starting simulation...
Switching CPUs...
Next CPU: AtomicSimpleCPU
info: Entering event queue @ 779175979000.  Starting simulation...
info: Entering event queue @ 786175972000.  Starting simulation...
info: Entering event queue @ 786175978500.  Starting simulation...
switching cpus
info: Entering event queue @ 786175979000.  Starting simulation...
Switching CPUs...
Next CPU: TimingSimpleCPU
switching cpus
info: Entering event queue @ 787175979000.  Starting simulation...
Switching CPUs...
Next CPU: DerivO3CPU
switching cpus
info: Entering event queue @ 788175979000.  Starting simulation...
Switching CPUs...
Next CPU: AtomicSimpleCPU
info: Entering event queue @ 789175979000.  Starting simulation...
info: Entering event queue @ 796175972000.  Starting simulation...
info: Entering event queue @ 796175978500.  Starting simulation...
switching cpus
info: Entering event queue @ 796175979000.  Starting simulation...
Switching CPUs...
Next CPU: TimingSimpleCPU
switching cpus
info: Entering event queue @ 797175979000.  Starting simulation...
Switching CPUs...
Next CPU: DerivO3CPU
switching cpus
info: Entering event queue @ 798175979000.  Starting simulation...
Switching CPUs...
Next CPU: AtomicSimpleCPU
info: Entering event queue @ 799175979000.  Starting simulation...
info: Entering event queue @ 806175972000.  Starting simulation...
info: Entering event queue @ 806175978500.  Starting simulation...
switching cpus
info: Entering event queue @ 806175979000.  Starting simulation...
Switching CPUs...
Next CPU: TimingSimpleCPU
switching cpus
info: Entering event queue @ 807175979000.  Starting simulation...
Switching CPUs...
Next CPU: DerivO3CPU
switching cpus
info: Entering event queue @ 808175979000.  Starting simulation...
Switching CPUs...
Next CPU: AtomicSimpleCPU
info: Entering event queue @ 809175979000.  Starting simulation...
info: Entering event queue @ 816175972000.  Starting simulation...
info: Entering event queue @ 816175979000.  Starting simulation...
switching cpus
info: Entering event queue @ 816175983500.  Starting simulation...
Switching CPUs...
Next CPU: TimingSimpleCPU
switching cpus
info: Entering event queue @ 817175983500.  Starting simulation...
Switching CPUs...
Next CPU: DerivO3CPU
switching cpus
info: Entering event queue @ 818175983500.  Starting simulation...
Switching CPUs...
Next CPU: AtomicSimpleCPU
info: Entering event queue @ 819175983500.  Starting simulation...
info: Entering event queue @ 826175972000.  Starting simulation...
info: Entering event queue @ 826175979000.  Starting simulation...
switching cpus
info: Entering event queue @ 826175983500.  Starting simulation...
Switching CPUs...
Next CPU: TimingSimpleCPU
switching cpus
info: Entering event queue @ 827175983500.  Starting simulation...
Switching CPUs...
Next CPU: DerivO3CPU
switching cpus
info: Entering event queue @ 828175983500.  Starting simulation...
Switching CPUs...
Next CPU: AtomicSimpleCPU
info: Entering event queue @ 829175983500.  Starting simulation...
info: Entering event queue @ 836175972000.  Starting simulation...
info: Entering event queue @ 836175978500.  Starting simulation...
switching cpus
info: Entering event queue @ 836175979000.  Starting simulation...
Switching CPUs...
Next CPU: TimingSimpleCPU
switching cpus
info: Entering event queue @ 837175979000.  Starting simulation...
Switching CPUs...
Next CPU: DerivO3CPU
switching cpus
info: Entering event queue @ 838175979000.  Starting simulation...
Switching CPUs...
Next CPU: AtomicSimpleCPU
info: Entering event queue @ 839175979000.  Starting simulation...
info: Entering event queue @ 846175972000.  Starting simulation...
info: Entering event queue @ 846175978500.  Starting simulation...
switching cpus
info: Entering event queue @ 846175979000.  Starting simulation...
Switching CPUs...
Next CPU: TimingSimpleCPU
switching cpus
info: Entering event queue @ 847175979000.  Starting simulation...
Switching CPUs...
Next CPU: DerivO3CPU
switching cpus
info: Entering event queue @ 848175979000.  Starting simulation...
Switching CPUs...
Next CPU: AtomicSimpleCPU
info: Entering event queue @ 849175979000.  Starting simulation...
info: Entering event queue @ 856175972000.  Starting simulation...
info: Entering event queue @ 856231996000.  Starting simulation...
switching cpus
info: Entering event queue @ 856231998000.  Starting simulation...
Switching CPUs...
Next CPU: TimingSimpleCPU
switching cpus
info: Entering event queue @ 857231998000.  Starting simulation...
Switching CPUs...
Next CPU: DerivO3CPU
switching cpus
info: Entering event queue @ 858231998000.  Starting simulation...
Switching CPUs...
Next CPU: AtomicSimpleCPU
info: Entering event queue @ 859231998000.  Starting simulation...
info: Entering event queue @ 866175972000.  Starting simulation...
info: Entering event queue @ 866175978500.  Starting simulation...
switching cpus
info: Entering event queue @ 866175979000.  Starting simulation...
Switching CPUs...
Next CPU: TimingSimpleCPU
switching cpus
info: Entering event queue @ 867175979000.  Starting simulation...
Switching CPUs...
Next CPU: DerivO3CPU
switching cpus
info: Entering event queue @ 868175979000.  Starting simulation...
Switching CPUs...
Next CPU: AtomicSimpleCPU
info: Entering event queue @ 869175979000.  Starting simulation...
info: Entering event queue @ 876175972000.  Starting simulation...
info: Entering event queue @ 876175979000.  Starting simulation...
switching cpus
info: Entering event queue @ 876175983500.  Starting simulation...
Switching CPUs...
Next CPU: TimingSimpleCPU
switching cpus
info: Entering event queue @ 877175983500.  Starting simulation...
Switching CPUs...
Next CPU: DerivO3CPU
switching cpus
info: Entering event queue @ 878175983500.  Starting simulation...
Switching CPUs...
Next CPU: AtomicSimpleCPU
info: Entering event queue @ 879175983500.  Starting simulation...
info: Entering event queue @ 886175972000.  Starting simulation...
info: Entering event queue @ 886175979000.  Starting simulation...
switching cpus
info: Entering event queue @ 886175983500.  Starting simulation...
Switching CPUs...
Next CPU: TimingSimpleCPU
switching cpus
info: Entering event queue @ 887175983500.  Starting simulation...
Switching CPUs...
Next CPU: DerivO3CPU
info: Entering event queue @ 888175983500.  Starting simulation...
info: Entering event queue @ 888968137000.  Starting simulation...
switching cpus
info: Entering event queue @ 888968139000.  Starting simulation...
Switching CPUs...
Next CPU: AtomicSimpleCPU
info: Entering event queue @ 889968139000.  Starting simulation...
info: Entering event queue @ 896175973000.  Starting simulation...
info: Entering event queue @ 896175981000.  Starting simulation...
switching cpus
info: Entering event queue @ 896175985500.  Starting simulation...
Switching CPUs...
Next CPU: TimingSimpleCPU
switching cpus
info: Entering event queue @ 897175985500.  Starting simulation...
Switching CPUs...
Next CPU: DerivO3CPU
switching cpus
info: Entering event queue @ 898175985500.  Starting simulation...
Switching CPUs...
Next CPU: AtomicSimpleCPU
info: Entering event queue @ 899175985500.  Starting simulation...
switching cpus
info: Entering event queue @ 906175973000.  Starting simulation...
Switching CPUs...
Next CPU: TimingSimpleCPU
switching cpus
info: Entering event queue @ 907175973000.  Starting simulation...
Switching CPUs...
Next CPU: DerivO3CPU
switching cpus
info: Entering event queue @ 908175973000.  Starting simulation...
Switching CPUs...
Next CPU: AtomicSimpleCPU
info: Entering event queue @ 909175973000.  Starting simulation...
info: Entering event queue @ 916175972000.  Starting simulation...
info: Entering event queue @ 916175979000.  Starting simulation...
switching cpus
info: Entering event queue @ 916175983500.  Starting simulation...
Switching CPUs...
Next CPU: TimingSimpleCPU
switching cpus
info: Entering event queue @ 917175983500.  Starting simulation...
Switching CPUs...
Next CPU: DerivO3CPU
switching cpus
info: Entering event queue @ 918175983500.  Starting simulation...
Switching CPUs...
Next CPU: AtomicSimpleCPU
info: Entering event queue @ 919175983500.  Starting simulation...
info: Entering event queue @ 926175973000.  Starting simulation...
info: Entering event queue @ 926175981500.  Starting simulation...
switching cpus
info: Entering event queue @ 926175986000.  Starting simulation...
Switching CPUs...
Next CPU: TimingSimpleCPU
switching cpus
info: Entering event queue @ 927175986000.  Starting simulation...
Switching CPUs...
Next CPU: DerivO3CPU
switching cpus
info: Entering event queue @ 928175986000.  Starting simulation...
Switching CPUs...
Next CPU: AtomicSimpleCPU
info: Entering event queue @ 929175986000.  Starting simulation...
info: Entering event queue @ 936175972000.  Starting simulation...
info: Entering event queue @ 936175978500.  Starting simulation...
switching cpus
info: Entering event queue @ 936175979000.  Starting simulation...
Switching CPUs...
Next CPU: TimingSimpleCPU
switching cpus
info: Entering event queue @ 937175979000.  Starting simulation...
Switching CPUs...
Next CPU: DerivO3CPU
switching cpus
info: Entering event queue @ 938175979000.  Starting simulation...
Switching CPUs...
Next CPU: AtomicSimpleCPU
info: Entering event queue @ 939175979000.  Starting simulation...
info: Entering event queue @ 946175972000.  Starting simulation...
info: Entering event queue @ 946175978500.  Starting simulation...
switching cpus
info: Entering event queue @ 946175979000.  Starting simulation...
Switching CPUs...
Next CPU: TimingSimpleCPU
switching cpus
info: Entering event queue @ 947175979000.  Starting simulation...
Switching CPUs...
Next CPU: DerivO3CPU
switching cpus
info: Entering event queue @ 948175979000.  Starting simulation...
Switching CPUs...
Next CPU: AtomicSimpleCPU
info: Entering event queue @ 949175979000.  Starting simulation...
info: Entering event queue @ 956175972000.  Starting simulation...
info: Entering event queue @ 956175978500.  Starting simulation...
switching cpus
info: Entering event queue @ 956175979000.  Starting simulation...
Switching CPUs...
Next CPU: TimingSimpleCPU
switching cpus
info: Entering event queue @ 957175979000.  Starting simulation...
Switching CPUs...
Next CPU: DerivO3CPU
switching cpus
info: Entering event queue @ 958175979000.  Starting simulation...
Switching CPUs...
Next CPU: AtomicSimpleCPU
info: Entering event queue @ 959175979000.  Starting simulation...
info: Entering event queue @ 966175972000.  Starting simulation...
info: Entering event queue @ 966175978500.  Starting simulation...
switching cpus
info: Entering event queue @ 966175979000.  Starting simulation...
Switching CPUs...
Next CPU: TimingSimpleCPU
switching cpus
info: Entering event queue @ 967175979000.  Starting simulation...
Switching CPUs...
Next CPU: DerivO3CPU
switching cpus
info: Entering event queue @ 968175979000.  Starting simulation...
Switching CPUs...
Next CPU: AtomicSimpleCPU
info: Entering event queue @ 969175979000.  Starting simulation...
info: Entering event queue @ 976175972000.  Starting simulation...
info: Entering event queue @ 976175979000.  Starting simulation...
switching cpus
info: Entering event queue @ 976175983500.  Starting simulation...
Switching CPUs...
Next CPU: TimingSimpleCPU
switching cpus
info: Entering event queue @ 977175983500.  Starting simulation...
Switching CPUs...
Next CPU: DerivO3CPU
switching cpus
info: Entering event queue @ 978175983500.  Starting simulation...
Switching CPUs...
Next CPU: AtomicSimpleCPU
info: Entering event queue @ 979175983500.  Starting simulation...
info: Entering event queue @ 986175973000.  Starting simulation...
info: Entering event queue @ 987176863000.  Starting simulation...
switching cpus
info: Entering event queue @ 987176865000.  Starting simulation...
Switching CPUs...
Next CPU: TimingSimpleCPU
switching cpus
info: Entering event queue @ 988176865000.  Starting simulation...
Switching CPUs...
Next CPU: DerivO3CPU
switching cpus
info: Entering event queue @ 989176865000.  Starting simulation...
Switching CPUs...
Next CPU: AtomicSimpleCPU
info: Entering event queue @ 990176865000.  Starting simulation...
info: Entering event queue @ 996175972000.  Starting simulation...
info: Entering event queue @ 996175978500.  Starting simulation...
switching cpus
info: Entering event queue @ 996175979000.  Starting simulation...
Switching CPUs...
Next CPU: TimingSimpleCPU
switching cpus
info: Entering event queue @ 997175979000.  Starting simulation...
Switching CPUs...
Next CPU: DerivO3CPU
switching cpus
info: Entering event queue @ 998175979000.  Starting simulation...
Switching CPUs...
Next CPU: AtomicSimpleCPU
info: Entering event queue @ 999175979000.  Starting simulation...
info: Entering event queue @ 1006175972000.  Starting simulation...
info: Entering event queue @ 1006175978500.  Starting simulation...
switching cpus
info: Entering event queue @ 1006175979000.  Starting simulation...
Switching CPUs...
Next CPU: TimingSimpleCPU
switching cpus
info: Entering event queue @ 1007175979000.  Starting simulation...
Switching CPUs...
Next CPU: DerivO3CPU
switching cpus
info: Entering event queue @ 1008175979000.  Starting simulation...
Switching CPUs...
Next CPU: AtomicSimpleCPU
info: Entering event queue @ 1009175979000.  Starting simulation...
info: Entering event queue @ 1016175972000.  Starting simulation...
info: Entering event queue @ 1016175978500.  Starting simulation...
switching cpus
info: Entering event queue @ 1016175979000.  Starting simulation...
Switching CPUs...
Next CPU: TimingSimpleCPU
switching cpus
info: Entering event queue @ 1017175979000.  Starting simulation...
Switching CPUs...
Next CPU: DerivO3CPU
switching cpus
info: Entering event queue @ 1018175979000.  Starting simulation...
Switching CPUs...
Next CPU: AtomicSimpleCPU
info: Entering event queue @ 1019175979000.  Starting simulation...
info: Entering event queue @ 1026175972000.  Starting simulation...
info: Entering event queue @ 1026175978500.  Starting simulation...
switching cpus
info: Entering event queue @ 1026175979000.  Starting simulation...
Switching CPUs...
Next CPU: TimingSimpleCPU
switching cpus
info: Entering event queue @ 1027175979000.  Starting simulation...
Switching CPUs...
Next CPU: DerivO3CPU
switching cpus
info: Entering event queue @ 1028175979000.  Starting simulation...
Switching CPUs...
Next CPU: AtomicSimpleCPU
info: Entering event queue @ 1029175979000.  Starting simulation...
info: Entering event queue @ 1036175972000.  Starting simulation...
info: Entering event queue @ 1036175979000.  Starting simulation...
switching cpus
info: Entering event queue @ 1036175983500.  Starting simulation...
Switching CPUs...
Next CPU: TimingSimpleCPU
switching cpus
info: Entering event queue @ 1037175983500.  Starting simulation...
Switching CPUs...
Next CPU: DerivO3CPU
switching cpus
info: Entering event queue @ 1038175983500.  Starting simulation...
Switching CPUs...
Next CPU: AtomicSimpleCPU
info: Entering event queue @ 1039175983500.  Starting simulation...
info: Entering event queue @ 1046175972000.  Starting simulation...
info: Entering event queue @ 1046175979000.  Starting simulation...
switching cpus
info: Entering event queue @ 1046175983500.  Starting simulation...
Switching CPUs...
Next CPU: TimingSimpleCPU
switching cpus
info: Entering event queue @ 1047175983500.  Starting simulation...
Switching CPUs...
Next CPU: DerivO3CPU
switching cpus
info: Entering event queue @ 1048175983500.  Starting simulation...
Switching CPUs...
Next CPU: AtomicSimpleCPU
info: Entering event queue @ 1049175983500.  Starting simulation...
info: Entering event queue @ 1056175972000.  Starting simulation...
info: Entering event queue @ 1056175979000.  Starting simulation...
switching cpus
info: Entering event queue @ 1056175983500.  Starting simulation...
Switching CPUs...
Next CPU: TimingSimpleCPU
switching cpus
info: Entering event queue @ 1057175983500.  Starting simulation...
Switching CPUs...
Next CPU: DerivO3CPU
switching cpus
info: Entering event queue @ 1058175983500.  Starting simulation...
Switching CPUs...
Next CPU: AtomicSimpleCPU
info: Entering event queue @ 1059175983500.  Starting simulation...
info: Entering event queue @ 1066175972000.  Starting simulation...
info: Entering event queue @ 1066175979000.  Starting simulation...
switching cpus
info: Entering event queue @ 1066175983500.  Starting simulation...
Switching CPUs...
Next CPU: TimingSimpleCPU
switching cpus
info: Entering event queue @ 1067175983500.  Starting simulation...
Switching CPUs...
Next CPU: DerivO3CPU
switching cpus
info: Entering event queue @ 1068175983500.  Starting simulation...
Switching CPUs...
Next CPU: AtomicSimpleCPU
info: Entering event queue @ 1069175983500.  Starting simulation...
info: Entering event queue @ 1076175972000.  Starting simulation...
info: Entering event queue @ 1076175979000.  Starting simulation...
switching cpus
info: Entering event queue @ 1076175983500.  Starting simulation...
Switching CPUs...
Next CPU: TimingSimpleCPU
switching cpus
info: Entering event queue @ 1077175983500.  Starting simulation...
Switching CPUs...
Next CPU: DerivO3CPU
switching cpus
info: Entering event queue @ 1078175983500.  Starting simulation...
Switching CPUs...
Next CPU: AtomicSimpleCPU
info: Entering event queue @ 1079175983500.  Starting simulation...
info: Entering event queue @ 1086175973000.  Starting simulation...
info: Entering event queue @ 1086175981500.  Starting simulation...
switching cpus
info: Entering event queue @ 1086175986000.  Starting simulation...
Switching CPUs...
Next CPU: TimingSimpleCPU
switching cpus
info: Entering event queue @ 1087175986000.  Starting simulation...
Switching CPUs...
Next CPU: DerivO3CPU
switching cpus
info: Entering event queue @ 1088175986000.  Starting simulation...
Switching CPUs...
Next CPU: AtomicSimpleCPU
info: Entering event queue @ 1089175986000.  Starting simulation...
info: Entering event queue @ 1096175972000.  Starting simulation...
info: Entering event queue @ 1096175978500.  Starting simulation...
switching cpus
info: Entering event queue @ 1096175979000.  Starting simulation...
Switching CPUs...
Next CPU: TimingSimpleCPU
switching cpus
info: Entering event queue @ 1097175979000.  Starting simulation...
Switching CPUs...
Next CPU: DerivO3CPU
switching cpus
info: Entering event queue @ 1098175979000.  Starting simulation...
Switching CPUs...
Next CPU: AtomicSimpleCPU
info: Entering event queue @ 1099175979000.  Starting simulation...
info: Entering event queue @ 1106175972000.  Starting simulation...
info: Entering event queue @ 1106175978500.  Starting simulation...
switching cpus
info: Entering event queue @ 1106175979000.  Starting simulation...
Switching CPUs...
Next CPU: TimingSimpleCPU
switching cpus
info: Entering event queue @ 1107175979000.  Starting simulation...
Switching CPUs...
Next CPU: DerivO3CPU
switching cpus
info: Entering event queue @ 1108175979000.  Starting simulation...
Switching CPUs...
Next CPU: AtomicSimpleCPU
info: Entering event queue @ 1109175979000.  Starting simulation...
info: Entering event queue @ 1116175972000.  Starting simulation...
info: Entering event queue @ 1116175978500.  Starting simulation...
switching cpus
info: Entering event queue @ 1116175979000.  Starting simulation...
Switching CPUs...
Next CPU: TimingSimpleCPU
switching cpus
info: Entering event queue @ 1117175979000.  Starting simulation...
Switching CPUs...
Next CPU: DerivO3CPU
switching cpus
info: Entering event queue @ 1118175979000.  Starting simulation...
Switching CPUs...
Next CPU: AtomicSimpleCPU
info: Entering event queue @ 1119175979000.  Starting simulation...
info: Entering event queue @ 1126175972000.  Starting simulation...
info: Entering event queue @ 1126175978500.  Starting simulation...
switching cpus
info: Entering event queue @ 1126175979000.  Starting simulation...
Switching CPUs...
Next CPU: TimingSimpleCPU
switching cpus
info: Entering event queue @ 1127175979000.  Starting simulation...
Switching CPUs...
Next CPU: DerivO3CPU
switching cpus
info: Entering event queue @ 1128175979000.  Starting simulation...
Switching CPUs...
Next CPU: AtomicSimpleCPU
info: Entering event queue @ 1129175979000.  Starting simulation...
info: Entering event queue @ 1136175972000.  Starting simulation...
info: Entering event queue @ 1136175979000.  Starting simulation...
switching cpus
info: Entering event queue @ 1136175983500.  Starting simulation...
Switching CPUs...
Next CPU: TimingSimpleCPU
switching cpus
info: Entering event queue @ 1137175983500.  Starting simulation...
Switching CPUs...
Next CPU: DerivO3CPU
switching cpus
info: Entering event queue @ 1138175983500.  Starting simulation...
Switching CPUs...
Next CPU: AtomicSimpleCPU
info: Entering event queue @ 1139175983500.  Starting simulation...
info: Entering event queue @ 1146175972000.  Starting simulation...
info: Entering event queue @ 1146175979000.  Starting simulation...
switching cpus
info: Entering event queue @ 1146175983500.  Starting simulation...
Switching CPUs...
Next CPU: TimingSimpleCPU
switching cpus
info: Entering event queue @ 1147175983500.  Starting simulation...
Switching CPUs...
Next CPU: DerivO3CPU
switching cpus
info: Entering event queue @ 1148175983500.  Starting simulation...
Switching CPUs...
Next CPU: AtomicSimpleCPU
info: Entering event queue @ 1149175983500.  Starting simulation...
info: Entering event queue @ 1156175972000.  Starting simulation...
info: Entering event queue @ 1156175978500.  Starting simulation...
switching cpus
info: Entering event queue @ 1156175979000.  Starting simulation...
Switching CPUs...
Next CPU: TimingSimpleCPU
switching cpus
info: Entering event queue @ 1157175979000.  Starting simulation...
Switching CPUs...
Next CPU: DerivO3CPU
switching cpus
info: Entering event queue @ 1158175979000.  Starting simulation...
Switching CPUs...
Next CPU: AtomicSimpleCPU
info: Entering event queue @ 1159175979000.  Starting simulation...
info: Entering event queue @ 1166175972000.  Starting simulation...
info: Entering event queue @ 1166175978500.  Starting simulation...
switching cpus
info: Entering event queue @ 1166175979000.  Starting simulation...
Switching CPUs...
Next CPU: TimingSimpleCPU
switching cpus
info: Entering event queue @ 1167175979000.  Starting simulation...
Switching CPUs...
Next CPU: DerivO3CPU
switching cpus
info: Entering event queue @ 1168175979000.  Starting simulation...
Switching CPUs...
Next CPU: AtomicSimpleCPU
info: Entering event queue @ 1169175979000.  Starting simulation...
info: Entering event queue @ 1176175972000.  Starting simulation...
info: Entering event queue @ 1176175978500.  Starting simulation...
switching cpus
info: Entering event queue @ 1176175979000.  Starting simulation...
Switching CPUs...
Next CPU: TimingSimpleCPU
switching cpus
info: Entering event queue @ 1177175979000.  Starting simulation...
Switching CPUs...
Next CPU: DerivO3CPU
switching cpus
info: Entering event queue @ 1178175979000.  Starting simulation...
Switching CPUs...
Next CPU: AtomicSimpleCPU
info: Entering event queue @ 1179175979000.  Starting simulation...
info: Entering event queue @ 1186175972000.  Starting simulation...
info: Entering event queue @ 1186175978500.  Starting simulation...
switching cpus
info: Entering event queue @ 1186175979000.  Starting simulation...
Switching CPUs...
Next CPU: TimingSimpleCPU
switching cpus
info: Entering event queue @ 1187175979000.  Starting simulation...
Switching CPUs...
Next CPU: DerivO3CPU
switching cpus
info: Entering event queue @ 1188175979000.  Starting simulation...
Switching CPUs...
Next CPU: AtomicSimpleCPU
info: Entering event queue @ 1189175979000.  Starting simulation...
info: Entering event queue @ 1196175972000.  Starting simulation...
info: Entering event queue @ 1196175979000.  Starting simulation...
switching cpus
info: Entering event queue @ 1196175983500.  Starting simulation...
Switching CPUs...
Next CPU: TimingSimpleCPU
switching cpus
info: Entering event queue @ 1197175983500.  Starting simulation...
Switching CPUs...
Next CPU: DerivO3CPU
switching cpus
info: Entering event queue @ 1198175983500.  Starting simulation...
Switching CPUs...
Next CPU: AtomicSimpleCPU
info: Entering event queue @ 1199175983500.  Starting simulation...
info: Entering event queue @ 1206175972000.  Starting simulation...
info: Entering event queue @ 1206175979000.  Starting simulation...
switching cpus
info: Entering event queue @ 1206175983500.  Starting simulation...
Switching CPUs...
Next CPU: TimingSimpleCPU
switching cpus
info: Entering event queue @ 1207175983500.  Starting simulation...
Switching CPUs...
Next CPU: DerivO3CPU
switching cpus
info: Entering event queue @ 1208175983500.  Starting simulation...
Switching CPUs...
Next CPU: AtomicSimpleCPU
info: Entering event queue @ 1209175983500.  Starting simulation...
info: Entering event queue @ 1216175973000.  Starting simulation...
info: Entering event queue @ 1216330621000.  Starting simulation...
switching cpus
info: Entering event queue @ 1216330623000.  Starting simulation...
Switching CPUs...
Next CPU: TimingSimpleCPU
switching cpus
info: Entering event queue @ 1217330623000.  Starting simulation...
Switching CPUs...
Next CPU: DerivO3CPU
switching cpus
info: Entering event queue @ 1218330623000.  Starting simulation...
Switching CPUs...
Next CPU: AtomicSimpleCPU
info: Entering event queue @ 1219330623000.  Starting simulation...
info: Entering event queue @ 1226175973000.  Starting simulation...
info: Entering event queue @ 1226175980500.  Starting simulation...
switching cpus
info: Entering event queue @ 1226175985000.  Starting simulation...
Switching CPUs...
Next CPU: TimingSimpleCPU
switching cpus
info: Entering event queue @ 1227175985000.  Starting simulation...
Switching CPUs...
Next CPU: DerivO3CPU
switching cpus
info: Entering event queue @ 1228175985000.  Starting simulation...
Switching CPUs...
Next CPU: AtomicSimpleCPU
info: Entering event queue @ 1229175985000.  Starting simulation...
info: Entering event queue @ 1236175972000.  Starting simulation...
info: Entering event queue @ 1236175979000.  Starting simulation...
switching cpus
info: Entering event queue @ 1236175983500.  Starting simulation...
Switching CPUs...
Next CPU: TimingSimpleCPU
switching cpus
info: Entering event queue @ 1237175983500.  Starting simulation...
Switching CPUs...
Next CPU: DerivO3CPU
switching cpus
info: Entering event queue @ 1238175983500.  Starting simulation...
Switching CPUs...
Next CPU: AtomicSimpleCPU
info: Entering event queue @ 1239175983500.  Starting simulation...
info: Entering event queue @ 1246175973000.  Starting simulation...
info: Entering event queue @ 1246175981500.  Starting simulation...
switching cpus
info: Entering event queue @ 1246175986000.  Starting simulation...
Switching CPUs...
Next CPU: TimingSimpleCPU
switching cpus
info: Entering event queue @ 1247175986000.  Starting simulation...
Switching CPUs...
Next CPU: DerivO3CPU
info: Entering event queue @ 1248175986000.  Starting simulation...
info: Entering event queue @ 1249067221000.  Starting simulation...
switching cpus
info: Entering event queue @ 1249067223000.  Starting simulation...
Switching CPUs...
Next CPU: AtomicSimpleCPU
info: Entering event queue @ 1250067223000.  Starting simulation...
info: Entering event queue @ 1256175972000.  Starting simulation...
info: Entering event queue @ 1256175978500.  Starting simulation...
switching cpus
info: Entering event queue @ 1256175979000.  Starting simulation...
Switching CPUs...
Next CPU: TimingSimpleCPU
switching cpus
info: Entering event queue @ 1257175979000.  Starting simulation...
Switching CPUs...
Next CPU: DerivO3CPU
switching cpus
info: Entering event queue @ 1258175979000.  Starting simulation...
Switching CPUs...
Next CPU: AtomicSimpleCPU
info: Entering event queue @ 1259175979000.  Starting simulation...
info: Entering event queue @ 1266175972000.  Starting simulation...
info: Entering event queue @ 1266175978500.  Starting simulation...
switching cpus
info: Entering event queue @ 1266175979000.  Starting simulation...
Switching CPUs...
Next CPU: TimingSimpleCPU
switching cpus
info: Entering event queue @ 1267175979000.  Starting simulation...
Switching CPUs...
Next CPU: DerivO3CPU
switching cpus
info: Entering event queue @ 1268175979000.  Starting simulation...
Switching CPUs...
Next CPU: AtomicSimpleCPU
info: Entering event queue @ 1269175979000.  Starting simulation...
info: Entering event queue @ 1276175972000.  Starting simulation...
info: Entering event queue @ 1276175978500.  Starting simulation...
switching cpus
info: Entering event queue @ 1276175979000.  Starting simulation...
Switching CPUs...
Next CPU: TimingSimpleCPU
switching cpus
info: Entering event queue @ 1277175979000.  Starting simulation...
Switching CPUs...
Next CPU: DerivO3CPU
switching cpus
info: Entering event queue @ 1278175979000.  Starting simulation...
Switching CPUs...
Next CPU: AtomicSimpleCPU
info: Entering event queue @ 1279175979000.  Starting simulation...
info: Entering event queue @ 1286175972000.  Starting simulation...
info: Entering event queue @ 1286175978500.  Starting simulation...
switching cpus
info: Entering event queue @ 1286175979000.  Starting simulation...
Switching CPUs...
Next CPU: TimingSimpleCPU
switching cpus
info: Entering event queue @ 1287175979000.  Starting simulation...
Switching CPUs...
Next CPU: DerivO3CPU
switching cpus
info: Entering event queue @ 1288175979000.  Starting simulation...
Switching CPUs...
Next CPU: AtomicSimpleCPU
info: Entering event queue @ 1289175979000.  Starting simulation...
info: Entering event queue @ 1296175972000.  Starting simulation...
info: Entering event queue @ 1296175979000.  Starting simulation...
switching cpus
info: Entering event queue @ 1296175983500.  Starting simulation...
Switching CPUs...
Next CPU: TimingSimpleCPU
switching cpus
info: Entering event queue @ 1297175983500.  Starting simulation...
Switching CPUs...
Next CPU: DerivO3CPU
switching cpus
info: Entering event queue @ 1298175983500.  Starting simulation...
Switching CPUs...
Next CPU: AtomicSimpleCPU
info: Entering event queue @ 1299175983500.  Starting simulation...
info: Entering event queue @ 1306175972000.  Starting simulation...
info: Entering event queue @ 1306175979000.  Starting simulation...
switching cpus
info: Entering event queue @ 1306175983500.  Starting simulation...
Switching CPUs...
Next CPU: TimingSimpleCPU
switching cpus
info: Entering event queue @ 1307175983500.  Starting simulation...
Switching CPUs...
Next CPU: DerivO3CPU
switching cpus
info: Entering event queue @ 1308175983500.  Starting simulation...
Switching CPUs...
Next CPU: AtomicSimpleCPU
info: Entering event queue @ 1309175983500.  Starting simulation...
info: Entering event queue @ 1316175972000.  Starting simulation...
info: Entering event queue @ 1316175978500.  Starting simulation...
switching cpus
info: Entering event queue @ 1316175979000.  Starting simulation...
Switching CPUs...
Next CPU: TimingSimpleCPU
switching cpus
info: Entering event queue @ 1317175979000.  Starting simulation...
Switching CPUs...
Next CPU: DerivO3CPU
switching cpus
[...]
Next CPU: AtomicSimpleCPU
info: Entering event queue @ 2284177432000.  Starting simulation...
switching cpus
info: Entering event queue @ 2284177537000.  Starting simulation...
Switching CPUs...
Next CPU: TimingSimpleCPU
switching cpus
info: Entering event queue @ 2285177537000.  Starting simulation...
Switching CPUs...
Next CPU: DerivO3CPU
info: Entering event queue @ 2286177537000.  Starting simulation...
switching cpus
info: Entering event queue @ 2286177620000.  Starting simulation...
Switching CPUs...
Next CPU: AtomicSimpleCPU
info: Entering event queue @ 2287177620000.  Starting simulation...
switching cpus
info: Entering event queue @ 2287177681000.  Starting simulation...
Switching CPUs...
Next CPU: TimingSimpleCPU
switching cpus
info: Entering event queue @ 2288177681000.  Starting simulation...
Switching CPUs...
Next CPU: DerivO3CPU
info: Entering event queue @ 2289177681000.  Starting simulation...
switching cpus
info: Entering event queue @ 2289177796000.  Starting simulation...
Switching CPUs...
Next CPU: AtomicSimpleCPU
info: Entering event queue @ 2290177796000.  Starting simulation...
switching cpus
info: Entering event queue @ 2290177891000.  Starting simulation...
Switching CPUs...
Next CPU: TimingSimpleCPU
switching cpus
info: Entering event queue @ 2291177891000.  Starting simulation...
Switching CPUs...
Next CPU: DerivO3CPU
info: Entering event queue @ 2292177891000.  Starting simulation...
switching cpus
info: Entering event queue @ 2292177955000.  Starting simulation...
Switching CPUs...
Next CPU: AtomicSimpleCPU
info: Entering event queue @ 2293177955000.  Starting simulation...
switching cpus
info: Entering event queue @ 2293178118500.  Starting simulation...
Switching CPUs...
Next CPU: TimingSimpleCPU
switching cpus
info: Entering event queue @ 2294178118500.  Starting simulation...
Switching CPUs...
Next CPU: DerivO3CPU
info: Entering event queue @ 2295178118500.  Starting simulation...
info: Entering event queue @ 2296627561000.  Starting simulation...
switching cpus
info: Entering event queue @ 2296627563000.  Starting simulation...
Switching CPUs...
Next CPU: AtomicSimpleCPU
info: Entering event queue @ 2297627563000.  Starting simulation...
switching cpus
info: Entering event queue @ 2297627577000.  Starting simulation...
Switching CPUs...
Next CPU: TimingSimpleCPU
switching cpus
info: Entering event queue @ 2298627577000.  Starting simulation...
Switching CPUs...
Next CPU: DerivO3CPU
info: Entering event queue @ 2299627577000.  Starting simulation...
switching cpus
info: Entering event queue @ 2299627643000.  Starting simulation...
Switching CPUs...
Next CPU: AtomicSimpleCPU
info: Entering event queue @ 2300627643000.  Starting simulation...
switching cpus
info: Entering event queue @ 2300627767000.  Starting simulation...
Switching CPUs...
Next CPU: TimingSimpleCPU
switching cpus
info: Entering event queue @ 2301627767000.  Starting simulation...
Switching CPUs...
Next CPU: DerivO3CPU
info: Entering event queue @ 2302627767000.  Starting simulation...
switching cpus
info: Entering event queue @ 2302627826000.  Starting simulation...
Switching CPUs...
Next CPU: AtomicSimpleCPU
info: Entering event queue @ 2303627826000.  Starting simulation...
switching cpus
info: Entering event queue @ 2303627914000.  Starting simulation...
Switching CPUs...
Next CPU: TimingSimpleCPU
switching cpus
info: Entering event queue @ 2304627914000.  Starting simulation...
Switching CPUs...
Next CPU: DerivO3CPU
info: Entering event queue @ 2305627914000.  Starting simulation...
switching cpus
info: Entering event queue @ 2305628068000.  Starting simulation...
Switching CPUs...
Next CPU: AtomicSimpleCPU
info: Entering event queue @ 2306628068000.  Starting simulation...
switching cpus
info: Entering event queue @ 2306628219000.  Starting simulation...
Switching CPUs...
Next CPU: TimingSimpleCPU
switching cpus
info: Entering event queue @ 2307628219000.  Starting simulation...
Switching CPUs...
Next CPU: DerivO3CPU
info: Entering event queue @ 2308628219000.  Starting simulation...
switching cpus
info: Entering event queue @ 2308628231000.  Starting simulation...
Switching CPUs...
Next CPU: AtomicSimpleCPU
info: Entering event queue @ 2309628231000.  Starting simulation...
switching cpus
info: Entering event queue @ 2309628374500.  Starting simulation...
Switching CPUs...
Next CPU: TimingSimpleCPU
switching cpus
info: Entering event queue @ 2310628374500.  Starting simulation...
Switching CPUs...
Next CPU: DerivO3CPU
info: Entering event queue @ 2311628374500.  Starting simulation...
switching cpus
info: Entering event queue @ 2311628440000.  Starting simulation...
Switching CPUs...
Next CPU: AtomicSimpleCPU
info: Entering event queue @ 2312628440000.  Starting simulation...
switching cpus
info: Entering event queue @ 2312628571000.  Starting simulation...
Switching CPUs...
Next CPU: TimingSimpleCPU
switching cpus
info: Entering event queue @ 2313628571000.  Starting simulation...
Switching CPUs...
Next CPU: DerivO3CPU
info: Entering event queue @ 2314628571000.  Starting simulation...
switching cpus
info: Entering event queue @ 2314628586000.  Starting simulation...
Switching CPUs...
Next CPU: AtomicSimpleCPU
info: Entering event queue @ 2315628586000.  Starting simulation...
switching cpus
info: Entering event queue @ 2315628609000.  Starting simulation...
Switching CPUs...
Next CPU: TimingSimpleCPU
switching cpus
info: Entering event queue @ 2316628609000.  Starting simulation...
Switching CPUs...
Next CPU: DerivO3CPU
info: Entering event queue @ 2317628609000.  Starting simulation...
switching cpus
info: Entering event queue @ 2317628760000.  Starting simulation...
Switching CPUs...
Next CPU: AtomicSimpleCPU
info: Entering event queue @ 2318628760000.  Starting simulation...
switching cpus
info: Entering event queue @ 2318628871500.  Starting simulation...
Switching CPUs...
Next CPU: TimingSimpleCPU
switching cpus
info: Entering event queue @ 2319628871500.  Starting simulation...
Switching CPUs...
Next CPU: DerivO3CPU
info: Entering event queue @ 2320628871500.  Starting simulation...
switching cpus
info: Entering event queue @ 2320628950000.  Starting simulation...
Switching CPUs...
Next CPU: AtomicSimpleCPU
info: Entering event queue @ 2321628950000.  Starting simulation...
switching cpus
info: Entering event queue @ 2321628957000.  Starting simulation...
Switching CPUs...
Next CPU: TimingSimpleCPU
switching cpus
info: Entering event queue @ 2322628957000.  Starting simulation...
Switching CPUs...
Next CPU: DerivO3CPU
info: Entering event queue @ 2323628957000.  Starting simulation...
switching cpus
info: Entering event queue @ 2323629079000.  Starting simulation...
Switching CPUs...
Next CPU: AtomicSimpleCPU
info: Entering event queue @ 2324629079000.  Starting simulation...
switching cpus
info: Entering event queue @ 2324629126000.  Starting simulation...
Switching CPUs...
Next CPU: TimingSimpleCPU
switching cpus
info: Entering event queue @ 2325629126000.  Starting simulation...
Switching CPUs...
Next CPU: DerivO3CPU
info: Entering event queue @ 2326629126000.  Starting simulation...
switching cpus
info: Entering event queue @ 2326629176000.  Starting simulation...
Switching CPUs...
Next CPU: AtomicSimpleCPU
info: Entering event queue @ 2327629176000.  Starting simulation...
switching cpus
info: Entering event queue @ 2327629301000.  Starting simulation...
Switching CPUs...
Next CPU: TimingSimpleCPU
switching cpus
info: Entering event queue @ 2328629301000.  Starting simulation...
Switching CPUs...
Next CPU: DerivO3CPU
info: Entering event queue @ 2329629301000.  Starting simulation...
switching cpus
info: Entering event queue @ 2329629399000.  Starting simulation...
Switching CPUs...
Next CPU: AtomicSimpleCPU
info: Entering event queue @ 2330629399000.  Starting simulation...
switching cpus
info: Entering event queue @ 2330629558000.  Starting simulation...
Switching CPUs...
Next CPU: TimingSimpleCPU
switching cpus
info: Entering event queue @ 2331629558000.  Starting simulation...
Switching CPUs...
Next CPU: DerivO3CPU
info: Entering event queue @ 2332629558000.  Starting simulation...
switching cpus
info: Entering event queue @ 2332629573000.  Starting simulation...
Switching CPUs...
Next CPU: AtomicSimpleCPU
info: Entering event queue @ 2333629573000.  Starting simulation...
switching cpus
info: Entering event queue @ 2333629640000.  Starting simulation...
Switching CPUs...
Next CPU: TimingSimpleCPU
switching cpus
info: Entering event queue @ 2334629640000.  Starting simulation...
Switching CPUs...
Next CPU: DerivO3CPU
info: Entering event queue @ 2335629640000.  Starting simulation...
switching cpus
info: Entering event queue @ 2335629779000.  Starting simulation...
Switching CPUs...
Next CPU: AtomicSimpleCPU
info: Entering event queue @ 2336629779000.  Starting simulation...
switching cpus
info: Entering event queue @ 2336629888500.  Starting simulation...
Switching CPUs...
Next CPU: TimingSimpleCPU
switching cpus
info: Entering event queue @ 2337629888500.  Starting simulation...
Switching CPUs...
Next CPU: DerivO3CPU
info: Entering event queue @ 2338629888500.  Starting simulation...
switching cpus
info: Entering event queue @ 2338630042000.  Starting simulation...
Switching CPUs...
Next CPU: AtomicSimpleCPU
info: Entering event queue @ 2339630042000.  Starting simulation...
switching cpus
info: Entering event queue @ 2339630075000.  Starting simulation...
Switching CPUs...
Next CPU: TimingSimpleCPU
switching cpus
info: Entering event queue @ 2340630075000.  Starting simulation...
Switching CPUs...
Next CPU: DerivO3CPU
info: Entering event queue @ 2341630075000.  Starting simulation...
switching cpus
info: Entering event queue @ 2341630098000.  Starting simulation...
Switching CPUs...
Next CPU: AtomicSimpleCPU
info: Entering event queue @ 2342630098000.  Starting simulation...
switching cpus
info: Entering event queue @ 2342630224500.  Starting simulation...
Switching CPUs...
Next CPU: TimingSimpleCPU
switching cpus
info: Entering event queue @ 2343630224500.  Starting simulation...
Switching CPUs...
Next CPU: DerivO3CPU
info: Entering event queue @ 2344630224500.  Starting simulation...
switching cpus
info: Entering event queue @ 2344630308000.  Starting simulation...
Switching CPUs...
Next CPU: AtomicSimpleCPU
info: Entering event queue @ 2345630308000.  Starting simulation...
switching cpus
info: Entering event queue @ 2345630440000.  Starting simulation...
Switching CPUs...
Next CPU: TimingSimpleCPU
switching cpus
info: Entering event queue @ 2346630440000.  Starting simulation...
Switching CPUs...
Next CPU: DerivO3CPU
info: Entering event queue @ 2347630440000.  Starting simulation...
switching cpus
info: Entering event queue @ 2347630481000.  Starting simulation...
Switching CPUs...
Next CPU: AtomicSimpleCPU
info: Entering event queue @ 2348630481000.  Starting simulation...
switching cpus
info: Entering event queue @ 2348630538000.  Starting simulation...
Switching CPUs...
Next CPU: TimingSimpleCPU
switching cpus
info: Entering event queue @ 2349630538000.  Starting simulation...
Switching CPUs...
Next CPU: DerivO3CPU
info: Entering event queue @ 2350630538000.  Starting simulation...
switching cpus
info: Entering event queue @ 2350630623000.  Starting simulation...
Switching CPUs...
Next CPU: AtomicSimpleCPU
info: Entering event queue @ 2351630623000.  Starting simulation...
switching cpus
info: Entering event queue @ 2351630640000.  Starting simulation...
Switching CPUs...
Next CPU: TimingSimpleCPU
switching cpus
info: Entering event queue @ 2352630640000.  Starting simulation...
Switching CPUs...
Next CPU: DerivO3CPU
info: Entering event queue @ 2353630640000.  Starting simulation...
switching cpus
info: Entering event queue @ 2353630748000.  Starting simulation...
Switching CPUs...
Next CPU: AtomicSimpleCPU
info: Entering event queue @ 2354630748000.  Starting simulation...
switching cpus
info: Entering event queue @ 2354630878000.  Starting simulation...
Switching CPUs...
Next CPU: TimingSimpleCPU
switching cpus
info: Entering event queue @ 2355630878000.  Starting simulation...
Switching CPUs...
Next CPU: DerivO3CPU
info: Entering event queue @ 2356630878000.  Starting simulation...
switching cpus
info: Entering event queue @ 2356630895000.  Starting simulation...
Switching CPUs...
Next CPU: AtomicSimpleCPU
info: Entering event queue @ 2357630895000.  Starting simulation...
switching cpus
info: Entering event queue @ 2357630943000.  Starting simulation...
Switching CPUs...
Next CPU: TimingSimpleCPU
switching cpus
info: Entering event queue @ 2358630943000.  Starting simulation...
Switching CPUs...
Next CPU: DerivO3CPU
info: Entering event queue @ 2359630943000.  Starting simulation...
switching cpus
info: Entering event queue @ 2359630963000.  Starting simulation...
Switching CPUs...
Next CPU: AtomicSimpleCPU
info: Entering event queue @ 2360630963000.  Starting simulation...
info: Entering event queue @ 2362100305000.  Starting simulation...
switching cpus
info: Entering event queue @ 2362100307000.  Starting simulation...
Switching CPUs...
Next CPU: TimingSimpleCPU
switching cpus
info: Entering event queue @ 2363100307000.  Starting simulation...
Switching CPUs...
Next CPU: DerivO3CPU
info: Entering event queue @ 2364100307000.  Starting simulation...
switching cpus
info: Entering event queue @ 2364100364000.  Starting simulation...
Switching CPUs...
Next CPU: AtomicSimpleCPU
info: Entering event queue @ 2365100364000.  Starting simulation...
switching cpus
info: Entering event queue @ 2365100522000.  Starting simulation...
Switching CPUs...
Next CPU: TimingSimpleCPU
switching cpus
info: Entering event queue @ 2366100522000.  Starting simulation...
Switching CPUs...
Next CPU: DerivO3CPU
info: Entering event queue @ 2367100522000.  Starting simulation...
info: Entering event queue @ 2367100525000.  Starting simulation...
switching cpus
info: Entering event queue @ 2367100527500.  Starting simulation...
Switching CPUs...
Next CPU: AtomicSimpleCPU
info: Entering event queue @ 2368100527500.  Starting simulation...
switching cpus
info: Entering event queue @ 2368100529500.  Starting simulation...
Switching CPUs...
Next CPU: TimingSimpleCPU
switching cpus
info: Entering event queue @ 2369100529500.  Starting simulation...
Switching CPUs...
Next CPU: DerivO3CPU
info: Entering event queue @ 2370100529500.  Starting simulation...
switching cpus
info: Entering event queue @ 2370100533000.  Starting simulation...
Switching CPUs...
Next CPU: AtomicSimpleCPU
info: Entering event queue @ 2371100533000.  Starting simulation...
switching cpus
info: Entering event queue @ 2371100682500.  Starting simulation...
Switching CPUs...
Next CPU: TimingSimpleCPU
switching cpus
info: Entering event queue @ 2372100682500.  Starting simulation...
Switching CPUs...
Next CPU: DerivO3CPU
info: Entering event queue @ 2373100682500.  Starting simulation...
switching cpus
info: Entering event queue @ 2373100683500.  Starting simulation...
Switching CPUs...
Next CPU: AtomicSimpleCPU
info: Entering event queue @ 2374100683500.  Starting simulation...
switching cpus
info: Entering event queue @ 2374102804500.  Starting simulation...
Switching CPUs...
Next CPU: TimingSimpleCPU
switching cpus
info: Entering event queue @ 2375102804500.  Starting simulation...
Switching CPUs...
Next CPU: DerivO3CPU
info: Entering event queue @ 2376102804500.  Starting simulation...
switching cpus
info: Entering event queue @ 2376102808000.  Starting simulation...
Switching CPUs...
Next CPU: AtomicSimpleCPU
info: Entering event queue @ 2377102808000.  Starting simulation...
switching cpus
info: Entering event queue @ 2377102891000.  Starting simulation...
Switching CPUs...
Next CPU: TimingSimpleCPU
switching cpus
info: Entering event queue @ 2378102891000.  Starting simulation...
Switching CPUs...
Next CPU: DerivO3CPU
info: Entering event queue @ 2379102891000.  Starting simulation...
switching cpus
info: Entering event queue @ 2379102993000.  Starting simulation...
Switching CPUs...
Next CPU: AtomicSimpleCPU
info: Entering event queue @ 2380102993000.  Starting simulation...
switching cpus
info: Entering event queue @ 2380103021000.  Starting simulation...
Switching CPUs...
Next CPU: TimingSimpleCPU
switching cpus
info: Entering event queue @ 2381103021000.  Starting simulation...
Switching CPUs...
Next CPU: DerivO3CPU
info: Entering event queue @ 2382103021000.  Starting simulation...
switching cpus
info: Entering event queue @ 2382103048000.  Starting simulation...
Switching CPUs...
Next CPU: AtomicSimpleCPU
info: Entering event queue @ 2383103048000.  Starting simulation...
switching cpus
info: Entering event queue @ 2383112179000.  Starting simulation...
Switching CPUs...
Next CPU: TimingSimpleCPU
switching cpus
info: Entering event queue @ 2384112179000.  Starting simulation...
Switching CPUs...
Next CPU: DerivO3CPU
info: Entering event queue @ 2385112179000.  Starting simulation...
switching cpus
info: Entering event queue @ 2385112305000.  Starting simulation...
Switching CPUs...
Next CPU: AtomicSimpleCPU
info: Entering event queue @ 2386112305000.  Starting simulation...
switching cpus
info: Entering event queue @ 2386112310500.  Starting simulation...
Switching CPUs...
Next CPU: TimingSimpleCPU
info: Entering event queue @ 2387112310500.  Starting simulation...
switching cpus
info: Entering event queue @ 2387112312500.  Starting simulation...
Switching CPUs...
Next CPU: DerivO3CPU
info: Entering event queue @ 2388112312500.  Starting simulation...
switching cpus
info: Entering event queue @ 2388112314500.  Starting simulation...
Switching CPUs...
Next CPU: AtomicSimpleCPU
info: Entering event queue @ 2389112314500.  Starting simulation...
switching cpus
info: Entering event queue @ 2389112333500.  Starting simulation...
Switching CPUs...
Next CPU: TimingSimpleCPU
switching cpus
info: Entering event queue @ 2390112333500.  Starting simulation...
Switching CPUs...
Next CPU: DerivO3CPU
info: Entering event queue @ 2391112333500.  Starting simulation...
switching cpus
info: Entering event queue @ 2391112334500.  Starting simulation...
Switching CPUs...
Next CPU: AtomicSimpleCPU
info: Entering event queue @ 2392112334500.  Starting simulation...
switching cpus
info: Entering event queue @ 2392112630500.  Starting simulation...
Switching CPUs...
Next CPU: TimingSimpleCPU
info: Entering event queue @ 2393112630500.  Starting simulation...
switching cpus
info: Entering event queue @ 2393112631000.  Starting simulation...
Switching CPUs...
Next CPU: DerivO3CPU
info: Entering event queue @ 2394112631000.  Starting simulation...
info: Entering event queue @ 2394836596000.  Starting simulation...
switching cpus
info: Entering event queue @ 2394836598000.  Starting simulation...
Switching CPUs...
Next CPU: AtomicSimpleCPU
info: Entering event queue @ 2395836598000.  Starting simulation...
switching cpus
info: Entering event queue @ 2395839042500.  Starting simulation...
Switching CPUs...
Next CPU: TimingSimpleCPU
switching cpus
info: Entering event queue @ 2396839042500.  Starting simulation...
Switching CPUs...
Next CPU: DerivO3CPU
info: Entering event queue @ 2397839042500.  Starting simulation...
switching cpus
info: Entering event queue @ 2397839043500.  Starting simulation...
Switching CPUs...
Next CPU: AtomicSimpleCPU
info: Entering event queue @ 2398839043500.  Starting simulation...
switching cpus
info: Entering event queue @ 2398839190000.  Starting simulation...
Switching CPUs...
Next CPU: TimingSimpleCPU
info: Entering event queue @ 2399839190000.  Starting simulation...
switching cpus
info: Entering event queue @ 2399839190500.  Starting simulation...
Switching CPUs...
Next CPU: DerivO3CPU
info: Entering event queue @ 2400839190500.  Starting simulation...
info: Entering event queue @ 2400839197500.  Starting simulation...
switching cpus
info: Entering event queue @ 2400839201000.  Starting simulation...
