
---------- Begin Simulation Statistics ----------
sim_seconds                                  2.824718                       # Number of seconds simulated
sim_ticks                                2824717821500                       # Number of ticks simulated
final_tick                               2824717821500                       # Number of ticks from beginning of simulation (restored from checkpoints and never reset)
sim_freq                                 1000000000000                       # Frequency of simulated ticks
host_inst_rate                                 249146                       # Simulator instruction rate (inst/s)
host_op_rate                                   302232                       # Simulator op (including micro ops) rate (op/s)
host_tick_rate                             5724351305                       # Simulator tick rate (ticks/s)
host_mem_usage                                 631692                       # Number of bytes of host memory used
host_seconds                                   493.46                       # Real time elapsed on the host
sim_insts                                   122942928                       # Number of instructions simulated
sim_ops                                     149138280                       # Number of ops (including micro ops) simulated
system.voltage_domain.voltage                       1                       # Voltage in Volts
system.clk_domain.clock                          1000                       # Clock period in ticks
system.physmem.bytes_read::cpu0.dtb.walker          192                       # Number of bytes read from this memory
system.physmem.bytes_read::cpu0.itb.walker           64                       # Number of bytes read from this memory
system.physmem.bytes_read::cpu0.inst           536420                       # Number of bytes read from this memory
system.physmem.bytes_read::cpu0.data          4179876                       # Number of bytes read from this memory
system.physmem.bytes_read::cpu1.dtb.walker           64                       # Number of bytes read from this memory
system.physmem.bytes_read::cpu1.inst           121792                       # Number of bytes read from this memory
system.physmem.bytes_read::cpu1.data           910464                       # Number of bytes read from this memory
system.physmem.bytes_read::cpu2.dtb.walker         1984                       # Number of bytes read from this memory
system.physmem.bytes_read::cpu2.inst           318592                       # Number of bytes read from this memory
system.physmem.bytes_read::cpu2.data          1655680                       # Number of bytes read from this memory
system.physmem.bytes_read::cpu3.dtb.walker         4032                       # Number of bytes read from this memory
system.physmem.bytes_read::cpu3.inst           408768                       # Number of bytes read from this memory
system.physmem.bytes_read::cpu3.data          3010752                       # Number of bytes read from this memory
system.physmem.bytes_read::realview.ide           960                       # Number of bytes read from this memory
system.physmem.bytes_read::total             11149640                       # Number of bytes read from this memory
system.physmem.bytes_inst_read::cpu0.inst       536420                       # Number of instructions bytes read from this memory
system.physmem.bytes_inst_read::cpu1.inst       121792                       # Number of instructions bytes read from this memory
system.physmem.bytes_inst_read::cpu2.inst       318592                       # Number of instructions bytes read from this memory
system.physmem.bytes_inst_read::cpu3.inst       408768                       # Number of instructions bytes read from this memory
system.physmem.bytes_inst_read::total         1385572                       # Number of instructions bytes read from this memory
system.physmem.bytes_written::writebacks      8394624                       # Number of bytes written to this memory
system.physmem.bytes_written::cpu0.data         17524                       # Number of bytes written to this memory
system.physmem.bytes_written::total           8412148                       # Number of bytes written to this memory
system.physmem.num_reads::cpu0.dtb.walker            3                       # Number of read requests responded to by this memory
system.physmem.num_reads::cpu0.itb.walker            1                       # Number of read requests responded to by this memory
system.physmem.num_reads::cpu0.inst             16835                       # Number of read requests responded to by this memory
system.physmem.num_reads::cpu0.data             65830                       # Number of read requests responded to by this memory
system.physmem.num_reads::cpu1.dtb.walker            1                       # Number of read requests responded to by this memory
system.physmem.num_reads::cpu1.inst              1903                       # Number of read requests responded to by this memory
system.physmem.num_reads::cpu1.data             14226                       # Number of read requests responded to by this memory
system.physmem.num_reads::cpu2.dtb.walker           31                       # Number of read requests responded to by this memory
system.physmem.num_reads::cpu2.inst              4978                       # Number of read requests responded to by this memory
system.physmem.num_reads::cpu2.data             25870                       # Number of read requests responded to by this memory
system.physmem.num_reads::cpu3.dtb.walker           63                       # Number of read requests responded to by this memory
system.physmem.num_reads::cpu3.inst              6387                       # Number of read requests responded to by this memory
system.physmem.num_reads::cpu3.data             47043                       # Number of read requests responded to by this memory
system.physmem.num_reads::realview.ide             15                       # Number of read requests responded to by this memory
system.physmem.num_reads::total                183186                       # Number of read requests responded to by this memory
system.physmem.num_writes::writebacks          131166                       # Number of write requests responded to by this memory
system.physmem.num_writes::cpu0.data             4381                       # Number of write requests responded to by this memory
system.physmem.num_writes::total               135547                       # Number of write requests responded to by this memory
system.physmem.bw_read::cpu0.dtb.walker            68                       # Total read bandwidth from this memory (bytes/s)
system.physmem.bw_read::cpu0.itb.walker            23                       # Total read bandwidth from this memory (bytes/s)
system.physmem.bw_read::cpu0.inst              189902                       # Total read bandwidth from this memory (bytes/s)
system.physmem.bw_read::cpu0.data             1479750                       # Total read bandwidth from this memory (bytes/s)
system.physmem.bw_read::cpu1.dtb.walker            23                       # Total read bandwidth from this memory (bytes/s)
system.physmem.bw_read::cpu1.inst               43117                       # Total read bandwidth from this memory (bytes/s)
system.physmem.bw_read::cpu1.data              322320                       # Total read bandwidth from this memory (bytes/s)
system.physmem.bw_read::cpu2.dtb.walker           702                       # Total read bandwidth from this memory (bytes/s)
system.physmem.bw_read::cpu2.inst              112787                       # Total read bandwidth from this memory (bytes/s)
system.physmem.bw_read::cpu2.data              586140                       # Total read bandwidth from this memory (bytes/s)
system.physmem.bw_read::cpu3.dtb.walker          1427                       # Total read bandwidth from this memory (bytes/s)
system.physmem.bw_read::cpu3.inst              144711                       # Total read bandwidth from this memory (bytes/s)
system.physmem.bw_read::cpu3.data             1065859                       # Total read bandwidth from this memory (bytes/s)
system.physmem.bw_read::realview.ide              340                       # Total read bandwidth from this memory (bytes/s)
system.physmem.bw_read::total                 3947169                       # Total read bandwidth from this memory (bytes/s)
system.physmem.bw_inst_read::cpu0.inst         189902                       # Instruction read bandwidth from this memory (bytes/s)
system.physmem.bw_inst_read::cpu1.inst          43117                       # Instruction read bandwidth from this memory (bytes/s)
system.physmem.bw_inst_read::cpu2.inst         112787                       # Instruction read bandwidth from this memory (bytes/s)
system.physmem.bw_inst_read::cpu3.inst         144711                       # Instruction read bandwidth from this memory (bytes/s)
system.physmem.bw_inst_read::total             490517                       # Instruction read bandwidth from this memory (bytes/s)
system.physmem.bw_write::writebacks           2971845                       # Write bandwidth from this memory (bytes/s)
system.physmem.bw_write::cpu0.data               6204                       # Write bandwidth from this memory (bytes/s)
system.physmem.bw_write::total                2978049                       # Write bandwidth from this memory (bytes/s)
system.physmem.bw_total::writebacks           2971845                       # Total bandwidth to/from this memory (bytes/s)
system.physmem.bw_total::cpu0.dtb.walker           68                       # Total bandwidth to/from this memory (bytes/s)
system.physmem.bw_total::cpu0.itb.walker           23                       # Total bandwidth to/from this memory (bytes/s)
system.physmem.bw_total::cpu0.inst             189902                       # Total bandwidth to/from this memory (bytes/s)
system.physmem.bw_total::cpu0.data            1485954                       # Total bandwidth to/from this memory (bytes/s)
system.physmem.bw_total::cpu1.dtb.walker           23                       # Total bandwidth to/from this memory (bytes/s)
system.physmem.bw_total::cpu1.inst              43117                       # Total bandwidth to/from this memory (bytes/s)
system.physmem.bw_total::cpu1.data             322320                       # Total bandwidth to/from this memory (bytes/s)
system.physmem.bw_total::cpu2.dtb.walker          702                       # Total bandwidth to/from this memory (bytes/s)
system.physmem.bw_total::cpu2.inst             112787                       # Total bandwidth to/from this memory (bytes/s)
system.physmem.bw_total::cpu2.data             586140                       # Total bandwidth to/from this memory (bytes/s)
system.physmem.bw_total::cpu3.dtb.walker         1427                       # Total bandwidth to/from this memory (bytes/s)
system.physmem.bw_total::cpu3.inst             144711                       # Total bandwidth to/from this memory (bytes/s)
system.physmem.bw_total::cpu3.data            1065859                       # Total bandwidth to/from this memory (bytes/s)
system.physmem.bw_total::realview.ide             340                       # Total bandwidth to/from this memory (bytes/s)
system.physmem.bw_total::total                6925218                       # Total bandwidth to/from this memory (bytes/s)
system.physmem.readReqs                        100502                       # Number of read requests accepted
system.physmem.writeReqs                        68912                       # Number of write requests accepted
system.physmem.readBursts                      100502                       # Number of DRAM read bursts, including those serviced by the write queue
system.physmem.writeBursts                      68912                       # Number of DRAM write bursts, including those merged in the write queue
system.physmem.bytesReadDRAM                  6426176                       # Total number of bytes read from DRAM
system.physmem.bytesReadWrQ                      5952                       # Total number of bytes read from write queue
system.physmem.bytesWritten                   4409728                       # Total number of bytes written to DRAM
system.physmem.bytesReadSys                   6432128                       # Total read bytes from the system interface side
system.physmem.bytesWrittenSys                4410368                       # Total written bytes from the system interface side
system.physmem.servicedByWrQ                       93                       # Number of DRAM read bursts serviced by the write queue
system.physmem.mergedWrBursts                       0                       # Number of DRAM write bursts merged with an existing one
system.physmem.neitherReadNorWriteReqs          17980                       # Number of requests that are neither read nor write
system.physmem.perBankRdBursts::0                6920                       # Per bank write bursts
system.physmem.perBankRdBursts::1                6286                       # Per bank write bursts
system.physmem.perBankRdBursts::2                6764                       # Per bank write bursts
system.physmem.perBankRdBursts::3                6403                       # Per bank write bursts
system.physmem.perBankRdBursts::4                6105                       # Per bank write bursts
system.physmem.perBankRdBursts::5                5950                       # Per bank write bursts
system.physmem.perBankRdBursts::6                6704                       # Per bank write bursts
system.physmem.perBankRdBursts::7                6701                       # Per bank write bursts
system.physmem.perBankRdBursts::8                6487                       # Per bank write bursts
system.physmem.perBankRdBursts::9                6589                       # Per bank write bursts
system.physmem.perBankRdBursts::10               6182                       # Per bank write bursts
system.physmem.perBankRdBursts::11               5526                       # Per bank write bursts
system.physmem.perBankRdBursts::12               5641                       # Per bank write bursts
system.physmem.perBankRdBursts::13               6650                       # Per bank write bursts
system.physmem.perBankRdBursts::14               6151                       # Per bank write bursts
system.physmem.perBankRdBursts::15               5350                       # Per bank write bursts
system.physmem.perBankWrBursts::0                4550                       # Per bank write bursts
system.physmem.perBankWrBursts::1                4246                       # Per bank write bursts
system.physmem.perBankWrBursts::2                4783                       # Per bank write bursts
system.physmem.perBankWrBursts::3                4329                       # Per bank write bursts
system.physmem.perBankWrBursts::4                4133                       # Per bank write bursts
system.physmem.perBankWrBursts::5                4124                       # Per bank write bursts
system.physmem.perBankWrBursts::6                4743                       # Per bank write bursts
system.physmem.perBankWrBursts::7                4271                       # Per bank write bursts
system.physmem.perBankWrBursts::8                4451                       # Per bank write bursts
system.physmem.perBankWrBursts::9                4796                       # Per bank write bursts
system.physmem.perBankWrBursts::10               4218                       # Per bank write bursts
system.physmem.perBankWrBursts::11               3947                       # Per bank write bursts
system.physmem.perBankWrBursts::12               3851                       # Per bank write bursts
system.physmem.perBankWrBursts::13               4779                       # Per bank write bursts
system.physmem.perBankWrBursts::14               4130                       # Per bank write bursts
system.physmem.perBankWrBursts::15               3551                       # Per bank write bursts
system.physmem.numRdRetry                           0                       # Number of times read queue was full causing retry
system.physmem.numWrRetry                           0                       # Number of times write queue was full causing retry
system.physmem.totGap                    2823151552500                       # Total gap between requests
system.physmem.readPktSize::0                       0                       # Read request sizes (log2)
system.physmem.readPktSize::1                       0                       # Read request sizes (log2)
system.physmem.readPktSize::2                       0                       # Read request sizes (log2)
system.physmem.readPktSize::3                       0                       # Read request sizes (log2)
system.physmem.readPktSize::4                       0                       # Read request sizes (log2)
system.physmem.readPktSize::5                       0                       # Read request sizes (log2)
system.physmem.readPktSize::6                  100502                       # Read request sizes (log2)
system.physmem.writePktSize::0                      0                       # Write request sizes (log2)
system.physmem.writePktSize::1                      0                       # Write request sizes (log2)
system.physmem.writePktSize::2                      0                       # Write request sizes (log2)
system.physmem.writePktSize::3                      0                       # Write request sizes (log2)
system.physmem.writePktSize::4                      0                       # Write request sizes (log2)
system.physmem.writePktSize::5                      0                       # Write request sizes (log2)
system.physmem.writePktSize::6                  68912                       # Write request sizes (log2)
system.physmem.rdQLenPdf::0                     76732                       # What read queue length does an incoming req see
system.physmem.rdQLenPdf::1                     21067                       # What read queue length does an incoming req see
system.physmem.rdQLenPdf::2                      2057                       # What read queue length does an incoming req see
system.physmem.rdQLenPdf::3                       552                       # What read queue length does an incoming req see
system.physmem.rdQLenPdf::4                         1                       # What read queue length does an incoming req see
system.physmem.rdQLenPdf::5                         0                       # What read queue length does an incoming req see
system.physmem.rdQLenPdf::6                         0                       # What read queue length does an incoming req see
system.physmem.rdQLenPdf::7                         0                       # What read queue length does an incoming req see
system.physmem.rdQLenPdf::8                         0                       # What read queue length does an incoming req see
system.physmem.rdQLenPdf::9                         0                       # What read queue length does an incoming req see
system.physmem.rdQLenPdf::10                        0                       # What read queue length does an incoming req see
system.physmem.rdQLenPdf::11                        0                       # What read queue length does an incoming req see
system.physmem.rdQLenPdf::12                        0                       # What read queue length does an incoming req see
system.physmem.rdQLenPdf::13                        0                       # What read queue length does an incoming req see
system.physmem.rdQLenPdf::14                        0                       # What read queue length does an incoming req see
system.physmem.rdQLenPdf::15                        0                       # What read queue length does an incoming req see
system.physmem.rdQLenPdf::16                        0                       # What read queue length does an incoming req see
system.physmem.rdQLenPdf::17                        0                       # What read queue length does an incoming req see
system.physmem.rdQLenPdf::18                        0                       # What read queue length does an incoming req see
system.physmem.rdQLenPdf::19                        0                       # What read queue length does an incoming req see
system.physmem.rdQLenPdf::20                        0                       # What read queue length does an incoming req see
system.physmem.rdQLenPdf::21                        0                       # What read queue length does an incoming req see
system.physmem.rdQLenPdf::22                        0                       # What read queue length does an incoming req see
system.physmem.rdQLenPdf::23                        0                       # What read queue length does an incoming req see
system.physmem.rdQLenPdf::24                        0                       # What read queue length does an incoming req see
system.physmem.rdQLenPdf::25                        0                       # What read queue length does an incoming req see
system.physmem.rdQLenPdf::26                        0                       # What read queue length does an incoming req see
system.physmem.rdQLenPdf::27                        0                       # What read queue length does an incoming req see
system.physmem.rdQLenPdf::28                        0                       # What read queue length does an incoming req see
system.physmem.rdQLenPdf::29                        0                       # What read queue length does an incoming req see
system.physmem.rdQLenPdf::30                        0                       # What read queue length does an incoming req see
system.physmem.rdQLenPdf::31                        0                       # What read queue length does an incoming req see
system.physmem.wrQLenPdf::0                        72                       # What write queue length does an incoming req see
system.physmem.wrQLenPdf::1                        69                       # What write queue length does an incoming req see
system.physmem.wrQLenPdf::2                        67                       # What write queue length does an incoming req see
system.physmem.wrQLenPdf::3                        66                       # What write queue length does an incoming req see
system.physmem.wrQLenPdf::4                        64                       # What write queue length does an incoming req see
system.physmem.wrQLenPdf::5                        65                       # What write queue length does an incoming req see
system.physmem.wrQLenPdf::6                        64                       # What write queue length does an incoming req see
system.physmem.wrQLenPdf::7                        64                       # What write queue length does an incoming req see
system.physmem.wrQLenPdf::8                        64                       # What write queue length does an incoming req see
system.physmem.wrQLenPdf::9                        64                       # What write queue length does an incoming req see
system.physmem.wrQLenPdf::10                       64                       # What write queue length does an incoming req see
system.physmem.wrQLenPdf::11                       62                       # What write queue length does an incoming req see
system.physmem.wrQLenPdf::12                       62                       # What write queue length does an incoming req see
system.physmem.wrQLenPdf::13                       62                       # What write queue length does an incoming req see
system.physmem.wrQLenPdf::14                       63                       # What write queue length does an incoming req see
system.physmem.wrQLenPdf::15                     1227                       # What write queue length does an incoming req see
system.physmem.wrQLenPdf::16                     1461                       # What write queue length does an incoming req see
system.physmem.wrQLenPdf::17                     3065                       # What write queue length does an incoming req see
system.physmem.wrQLenPdf::18                     3482                       # What write queue length does an incoming req see
system.physmem.wrQLenPdf::19                     3816                       # What write queue length does an incoming req see
system.physmem.wrQLenPdf::20                     3847                       # What write queue length does an incoming req see
system.physmem.wrQLenPdf::21                     4087                       # What write queue length does an incoming req see
system.physmem.wrQLenPdf::22                     4007                       # What write queue length does an incoming req see
system.physmem.wrQLenPdf::23                     4298                       # What write queue length does an incoming req see
system.physmem.wrQLenPdf::24                     4323                       # What write queue length does an incoming req see
system.physmem.wrQLenPdf::25                     4350                       # What write queue length does an incoming req see
system.physmem.wrQLenPdf::26                     4893                       # What write queue length does an incoming req see
system.physmem.wrQLenPdf::27                     4186                       # What write queue length does an incoming req see
system.physmem.wrQLenPdf::28                     4173                       # What write queue length does an incoming req see
system.physmem.wrQLenPdf::29                     4364                       # What write queue length does an incoming req see
system.physmem.wrQLenPdf::30                     3907                       # What write queue length does an incoming req see
system.physmem.wrQLenPdf::31                     3740                       # What write queue length does an incoming req see
system.physmem.wrQLenPdf::32                     3651                       # What write queue length does an incoming req see
system.physmem.wrQLenPdf::33                      136                       # What write queue length does an incoming req see
system.physmem.wrQLenPdf::34                       81                       # What write queue length does an incoming req see
system.physmem.wrQLenPdf::35                       64                       # What write queue length does an incoming req see
system.physmem.wrQLenPdf::36                       65                       # What write queue length does an incoming req see
system.physmem.wrQLenPdf::37                       75                       # What write queue length does an incoming req see
system.physmem.wrQLenPdf::38                       48                       # What write queue length does an incoming req see
system.physmem.wrQLenPdf::39                       31                       # What write queue length does an incoming req see
system.physmem.wrQLenPdf::40                       33                       # What write queue length does an incoming req see
system.physmem.wrQLenPdf::41                       35                       # What write queue length does an incoming req see
system.physmem.wrQLenPdf::42                       43                       # What write queue length does an incoming req see
system.physmem.wrQLenPdf::43                       32                       # What write queue length does an incoming req see
system.physmem.wrQLenPdf::44                       63                       # What write queue length does an incoming req see
system.physmem.wrQLenPdf::45                       22                       # What write queue length does an incoming req see
system.physmem.wrQLenPdf::46                       46                       # What write queue length does an incoming req see
system.physmem.wrQLenPdf::47                       37                       # What write queue length does an incoming req see
system.physmem.wrQLenPdf::48                       34                       # What write queue length does an incoming req see
system.physmem.wrQLenPdf::49                       38                       # What write queue length does an incoming req see
system.physmem.wrQLenPdf::50                       22                       # What write queue length does an incoming req see
system.physmem.wrQLenPdf::51                       26                       # What write queue length does an incoming req see
system.physmem.wrQLenPdf::52                       27                       # What write queue length does an incoming req see
system.physmem.wrQLenPdf::53                       22                       # What write queue length does an incoming req see
system.physmem.wrQLenPdf::54                       30                       # What write queue length does an incoming req see
system.physmem.wrQLenPdf::55                       10                       # What write queue length does an incoming req see
system.physmem.wrQLenPdf::56                       11                       # What write queue length does an incoming req see
system.physmem.wrQLenPdf::57                       13                       # What write queue length does an incoming req see
system.physmem.wrQLenPdf::58                        4                       # What write queue length does an incoming req see
system.physmem.wrQLenPdf::59                        6                       # What write queue length does an incoming req see
system.physmem.wrQLenPdf::60                        3                       # What write queue length does an incoming req see
system.physmem.wrQLenPdf::61                        4                       # What write queue length does an incoming req see
system.physmem.wrQLenPdf::62                        2                       # What write queue length does an incoming req see
system.physmem.wrQLenPdf::63                        0                       # What write queue length does an incoming req see
system.physmem.bytesPerActivate::samples        39319                       # Bytes accessed per row activation
system.physmem.bytesPerActivate::mean      275.584628                       # Bytes accessed per row activation
system.physmem.bytesPerActivate::gmean     163.263333                       # Bytes accessed per row activation
system.physmem.bytesPerActivate::stdev     308.433492                       # Bytes accessed per row activation
system.physmem.bytesPerActivate::0-127          16168     41.12%     41.12% # Bytes accessed per row activation
system.physmem.bytesPerActivate::128-255         9688     24.64%     65.76% # Bytes accessed per row activation
system.physmem.bytesPerActivate::256-383         3830      9.74%     75.50% # Bytes accessed per row activation
system.physmem.bytesPerActivate::384-511         2076      5.28%     80.78% # Bytes accessed per row activation
system.physmem.bytesPerActivate::512-639         1590      4.04%     84.82% # Bytes accessed per row activation
system.physmem.bytesPerActivate::640-767          981      2.49%     87.32% # Bytes accessed per row activation
system.physmem.bytesPerActivate::768-895          594      1.51%     88.83% # Bytes accessed per row activation
system.physmem.bytesPerActivate::896-1023          552      1.40%     90.23% # Bytes accessed per row activation
system.physmem.bytesPerActivate::1024-1151         3840      9.77%    100.00% # Bytes accessed per row activation
system.physmem.bytesPerActivate::total          39319                       # Bytes accessed per row activation
system.physmem.rdPerTurnAround::samples          3599                       # Reads before turning the bus around for writes
system.physmem.rdPerTurnAround::mean        27.894137                       # Reads before turning the bus around for writes
system.physmem.rdPerTurnAround::stdev      471.050714                       # Reads before turning the bus around for writes
system.physmem.rdPerTurnAround::0-1023           3597     99.94%     99.94% # Reads before turning the bus around for writes
system.physmem.rdPerTurnAround::1024-2047            1      0.03%     99.97% # Reads before turning the bus around for writes
system.physmem.rdPerTurnAround::27648-28671            1      0.03%    100.00% # Reads before turning the bus around for writes
system.physmem.rdPerTurnAround::total            3599                       # Reads before turning the bus around for writes
system.physmem.wrPerTurnAround::samples          3599                       # Writes before turning the bus around for reads
system.physmem.wrPerTurnAround::mean        19.144762                       # Writes before turning the bus around for reads
system.physmem.wrPerTurnAround::gmean       17.954400                       # Writes before turning the bus around for reads
system.physmem.wrPerTurnAround::stdev       10.164866                       # Writes before turning the bus around for reads
system.physmem.wrPerTurnAround::0-3                 6      0.17%      0.17% # Writes before turning the bus around for reads
system.physmem.wrPerTurnAround::4-7                 2      0.06%      0.22% # Writes before turning the bus around for reads
system.physmem.wrPerTurnAround::8-11                1      0.03%      0.25% # Writes before turning the bus around for reads
system.physmem.wrPerTurnAround::12-15               5      0.14%      0.39% # Writes before turning the bus around for reads
system.physmem.wrPerTurnAround::16-19            3182     88.41%     88.80% # Writes before turning the bus around for reads
system.physmem.wrPerTurnAround::20-23              82      2.28%     91.08% # Writes before turning the bus around for reads
system.physmem.wrPerTurnAround::24-27              48      1.33%     92.41% # Writes before turning the bus around for reads
system.physmem.wrPerTurnAround::28-31              63      1.75%     94.17% # Writes before turning the bus around for reads
system.physmem.wrPerTurnAround::32-35              10      0.28%     94.44% # Writes before turning the bus around for reads
system.physmem.wrPerTurnAround::36-39              54      1.50%     95.94% # Writes before turning the bus around for reads
system.physmem.wrPerTurnAround::40-43              28      0.78%     96.72% # Writes before turning the bus around for reads
system.physmem.wrPerTurnAround::44-47               5      0.14%     96.86% # Writes before turning the bus around for reads
system.physmem.wrPerTurnAround::48-51               9      0.25%     97.11% # Writes before turning the bus around for reads
system.physmem.wrPerTurnAround::52-55              17      0.47%     97.58% # Writes before turning the bus around for reads
system.physmem.wrPerTurnAround::56-59               4      0.11%     97.69% # Writes before turning the bus around for reads
system.physmem.wrPerTurnAround::60-63               3      0.08%     97.78% # Writes before turning the bus around for reads
system.physmem.wrPerTurnAround::64-67              52      1.44%     99.22% # Writes before turning the bus around for reads
system.physmem.wrPerTurnAround::68-71               5      0.14%     99.36% # Writes before turning the bus around for reads
system.physmem.wrPerTurnAround::72-75               2      0.06%     99.42% # Writes before turning the bus around for reads
system.physmem.wrPerTurnAround::76-79              13      0.36%     99.78% # Writes before turning the bus around for reads
system.physmem.wrPerTurnAround::100-103             1      0.03%     99.81% # Writes before turning the bus around for reads
system.physmem.wrPerTurnAround::112-115             2      0.06%     99.86% # Writes before turning the bus around for reads
system.physmem.wrPerTurnAround::128-131             3      0.08%     99.94% # Writes before turning the bus around for reads
system.physmem.wrPerTurnAround::152-155             1      0.03%     99.97% # Writes before turning the bus around for reads
system.physmem.wrPerTurnAround::156-159             1      0.03%    100.00% # Writes before turning the bus around for reads
system.physmem.wrPerTurnAround::total            3599                       # Writes before turning the bus around for reads
system.physmem.totQLat                     1312823000                       # Total ticks spent queuing
system.physmem.totMemAccLat                3195491750                       # Total ticks spent from burst creation until serviced by the DRAM
system.physmem.totBusLat                    502045000                       # Total ticks spent in databus transfers
system.physmem.avgQLat                       13074.75                       # Average queueing delay per DRAM burst
system.physmem.avgBusLat                      5000.00                       # Average bus latency per DRAM burst
system.physmem.avgMemAccLat                  31824.75                       # Average memory access latency per DRAM burst
system.physmem.avgRdBW                           2.27                       # Average DRAM read bandwidth in MiByte/s
system.physmem.avgWrBW                           1.56                       # Average achieved write bandwidth in MiByte/s
system.physmem.avgRdBWSys                        2.28                       # Average system read bandwidth in MiByte/s
system.physmem.avgWrBWSys                        1.56                       # Average system write bandwidth in MiByte/s
system.physmem.peakBW                        12800.00                       # Theoretical peak bandwidth in MiByte/s
system.physmem.busUtil                           0.03                       # Data bus utilization in percentage
system.physmem.busUtilRead                       0.02                       # Data bus utilization in percentage for reads
system.physmem.busUtilWrite                      0.01                       # Data bus utilization in percentage for writes
system.physmem.avgRdQLen                         1.00                       # Average read queue length when enqueuing
system.physmem.avgWrQLen                        20.91                       # Average write queue length when enqueuing
system.physmem.readRowHits                      80981                       # Number of row buffer hits during reads
system.physmem.writeRowHits                     49010                       # Number of row buffer hits during writes
system.physmem.readRowHitRate                   80.65                       # Row buffer hit rate for reads
system.physmem.writeRowHitRate                  71.12                       # Row buffer hit rate for writes
system.physmem.avgGap                     16664216.37                       # Average gap between requests
system.physmem.pageHitRate                      76.77                       # Row buffer hit rate, read and write combined
system.physmem_0.actEnergy                  156287880                       # Energy for activate commands per rank (pJ)
system.physmem_0.preEnergy                   85152375                       # Energy for precharge commands per rank (pJ)
system.physmem_0.readEnergy                 404274000                       # Energy for read commands per rank (pJ)
system.physmem_0.writeEnergy                227959920                       # Energy for write commands per rank (pJ)
system.physmem_0.refreshEnergy           179773417200                       # Energy for refresh commands per rank (pJ)
system.physmem_0.actBackEnergy            73215548100                       # Energy for active background per rank (pJ)
system.physmem_0.preBackEnergy           1622782125750                       # Energy for precharge background per rank (pJ)
system.physmem_0.totalEnergy             1876644765225                       # Total energy per rank (pJ)
system.physmem_0.averagePower              667.446746                       # Core power per rank (mW)
system.physmem_0.memoryStateTime::IDLE   2640312790250                       # Time in different power states
system.physmem_0.memoryStateTime::REF     91908700000                       # Time in different power states
system.physmem_0.memoryStateTime::PRE_PDN            0                       # Time in different power states
system.physmem_0.memoryStateTime::ACT     20242228250                       # Time in different power states
system.physmem_0.memoryStateTime::ACT_PDN            0                       # Time in different power states
system.physmem_1.actEnergy                  140963760                       # Energy for activate commands per rank (pJ)
system.physmem_1.preEnergy                   76741500                       # Energy for precharge commands per rank (pJ)
system.physmem_1.readEnergy                 378892800                       # Energy for read commands per rank (pJ)
system.physmem_1.writeEnergy                218525040                       # Energy for write commands per rank (pJ)
system.physmem_1.refreshEnergy           179773417200                       # Energy for refresh commands per rank (pJ)
system.physmem_1.actBackEnergy            72451612440                       # Energy for active background per rank (pJ)
system.physmem_1.preBackEnergy           1618075692000                       # Energy for precharge background per rank (pJ)
system.physmem_1.totalEnergy             1871115844740                       # Total energy per rank (pJ)
system.physmem_1.averagePower              667.608024                       # Core power per rank (mW)
system.physmem_1.memoryStateTime::IDLE   2641479820250                       # Time in different power states
system.physmem_1.memoryStateTime::REF     91908700000                       # Time in different power states
system.physmem_1.memoryStateTime::PRE_PDN            0                       # Time in different power states
system.physmem_1.memoryStateTime::ACT     19062807500                       # Time in different power states
system.physmem_1.memoryStateTime::ACT_PDN            0                       # Time in different power states
system.realview.nvmem.bytes_read::cpu0.inst           20                       # Number of bytes read from this memory
system.realview.nvmem.bytes_read::total            20                       # Number of bytes read from this memory
system.realview.nvmem.bytes_inst_read::cpu0.inst           20                       # Number of instructions bytes read from this memory
system.realview.nvmem.bytes_inst_read::total           20                       # Number of instructions bytes read from this memory
system.realview.nvmem.num_reads::cpu0.inst            5                       # Number of read requests responded to by this memory
system.realview.nvmem.num_reads::total              5                       # Number of read requests responded to by this memory
system.realview.nvmem.bw_read::cpu0.inst            7                       # Total read bandwidth from this memory (bytes/s)
system.realview.nvmem.bw_read::total                7                       # Total read bandwidth from this memory (bytes/s)
system.realview.nvmem.bw_inst_read::cpu0.inst            7                       # Instruction read bandwidth from this memory (bytes/s)
system.realview.nvmem.bw_inst_read::total            7                       # Instruction read bandwidth from this memory (bytes/s)
system.realview.nvmem.bw_total::cpu0.inst            7                       # Total bandwidth to/from this memory (bytes/s)
system.realview.nvmem.bw_total::total               7                       # Total bandwidth to/from this memory (bytes/s)
system.cf0.dma_read_full_pages                      0                       # Number of full page size DMA reads (not PRD).
system.cf0.dma_read_bytes                        1024                       # Number of bytes transfered via DMA reads (not PRD).
system.cf0.dma_read_txs                             1                       # Number of DMA read transactions (not PRD).
system.cf0.dma_write_full_pages                   540                       # Number of full page size DMA writes.
system.cf0.dma_write_bytes                    2318336                       # Number of bytes transfered via DMA writes.
system.cf0.dma_write_txs                          631                       # Number of DMA write transactions.
system.cpu_clk_domain.clock                       500                       # Clock period in ticks
system.cpu0.dstage2_mmu.stage2_tlb.walker.walks            0                       # Table walker walks requested
system.cpu0.dstage2_mmu.stage2_tlb.walker.walkRequestOrigin_Requested::Data            0                       # Table walker requests started/completed, data/inst
system.cpu0.dstage2_mmu.stage2_tlb.walker.walkRequestOrigin_Requested::Inst            0                       # Table walker requests started/completed, data/inst
system.cpu0.dstage2_mmu.stage2_tlb.walker.walkRequestOrigin_Requested::total            0                       # Table walker requests started/completed, data/inst
system.cpu0.dstage2_mmu.stage2_tlb.walker.walkRequestOrigin_Completed::Data            0                       # Table walker requests started/completed, data/inst
system.cpu0.dstage2_mmu.stage2_tlb.walker.walkRequestOrigin_Completed::Inst            0                       # Table walker requests started/completed, data/inst
system.cpu0.dstage2_mmu.stage2_tlb.walker.walkRequestOrigin_Completed::total            0                       # Table walker requests started/completed, data/inst
system.cpu0.dstage2_mmu.stage2_tlb.walker.walkRequestOrigin::total            0                       # Table walker requests started/completed, data/inst
system.cpu0.dstage2_mmu.stage2_tlb.inst_hits            0                       # ITB inst hits
system.cpu0.dstage2_mmu.stage2_tlb.inst_misses            0                       # ITB inst misses
system.cpu0.dstage2_mmu.stage2_tlb.read_hits            0                       # DTB read hits
system.cpu0.dstage2_mmu.stage2_tlb.read_misses            0                       # DTB read misses
system.cpu0.dstage2_mmu.stage2_tlb.write_hits            0                       # DTB write hits
system.cpu0.dstage2_mmu.stage2_tlb.write_misses            0                       # DTB write misses
system.cpu0.dstage2_mmu.stage2_tlb.flush_tlb            0                       # Number of times complete TLB was flushed
system.cpu0.dstage2_mmu.stage2_tlb.flush_tlb_mva            0                       # Number of times TLB was flushed by MVA
system.cpu0.dstage2_mmu.stage2_tlb.flush_tlb_mva_asid            0                       # Number of times TLB was flushed by MVA & ASID
system.cpu0.dstage2_mmu.stage2_tlb.flush_tlb_asid            0                       # Number of times TLB was flushed by ASID
system.cpu0.dstage2_mmu.stage2_tlb.flush_entries            0                       # Number of entries that have been flushed from TLB
system.cpu0.dstage2_mmu.stage2_tlb.align_faults            0                       # Number of TLB faults due to alignment restrictions
system.cpu0.dstage2_mmu.stage2_tlb.prefetch_faults            0                       # Number of TLB faults due to prefetch
system.cpu0.dstage2_mmu.stage2_tlb.domain_faults            0                       # Number of TLB faults due to domain restrictions
system.cpu0.dstage2_mmu.stage2_tlb.perms_faults            0                       # Number of TLB faults due to permissions restrictions
system.cpu0.dstage2_mmu.stage2_tlb.read_accesses            0                       # DTB read accesses
system.cpu0.dstage2_mmu.stage2_tlb.write_accesses            0                       # DTB write accesses
system.cpu0.dstage2_mmu.stage2_tlb.inst_accesses            0                       # ITB inst accesses
system.cpu0.dstage2_mmu.stage2_tlb.hits             0                       # DTB hits
system.cpu0.dstage2_mmu.stage2_tlb.misses            0                       # DTB misses
system.cpu0.dstage2_mmu.stage2_tlb.accesses            0                       # DTB accesses
system.cpu0.dtb.walker.walks                     4993                       # Table walker walks requested
system.cpu0.dtb.walker.walksShort                4993                       # Table walker walks initiated with short descriptors
system.cpu0.dtb.walker.walkWaitTime::samples         4993                       # Table walker wait (enqueue to first request) latency
system.cpu0.dtb.walker.walkWaitTime::0           4993    100.00%    100.00% # Table walker wait (enqueue to first request) latency
system.cpu0.dtb.walker.walkWaitTime::total         4993                       # Table walker wait (enqueue to first request) latency
system.cpu0.dtb.walker.walksPending::samples  57346094376                       # Table walker pending requests distribution
system.cpu0.dtb.walker.walksPending::mean     1.255415                       # Table walker pending requests distribution
system.cpu0.dtb.walker.walksPending::0   -14647046374    -25.54%    -25.54% # Table walker pending requests distribution
system.cpu0.dtb.walker.walksPending::1    71993140750    125.54%    100.00% # Table walker pending requests distribution
system.cpu0.dtb.walker.walksPending::total  57346094376                       # Table walker pending requests distribution
system.cpu0.dtb.walker.walkPageSizes::4K         2743     66.90%     66.90% # Table walker page sizes translated
system.cpu0.dtb.walker.walkPageSizes::1M         1357     33.10%    100.00% # Table walker page sizes translated
system.cpu0.dtb.walker.walkPageSizes::total         4100                       # Table walker page sizes translated
system.cpu0.dtb.walker.walkRequestOrigin_Requested::Data         4993                       # Table walker requests started/completed, data/inst
system.cpu0.dtb.walker.walkRequestOrigin_Requested::Inst            0                       # Table walker requests started/completed, data/inst
system.cpu0.dtb.walker.walkRequestOrigin_Requested::total         4993                       # Table walker requests started/completed, data/inst
system.cpu0.dtb.walker.walkRequestOrigin_Completed::Data         4100                       # Table walker requests started/completed, data/inst
system.cpu0.dtb.walker.walkRequestOrigin_Completed::Inst            0                       # Table walker requests started/completed, data/inst
system.cpu0.dtb.walker.walkRequestOrigin_Completed::total         4100                       # Table walker requests started/completed, data/inst
system.cpu0.dtb.walker.walkRequestOrigin::total         9093                       # Table walker requests started/completed, data/inst
system.cpu0.dtb.inst_hits                           0                       # ITB inst hits
system.cpu0.dtb.inst_misses                         0                       # ITB inst misses
system.cpu0.dtb.read_hits                    12030030                       # DTB read hits
system.cpu0.dtb.read_misses                      4190                       # DTB read misses
system.cpu0.dtb.write_hits                    9398007                       # DTB write hits
system.cpu0.dtb.write_misses                      803                       # DTB write misses
system.cpu0.dtb.flush_tlb                         171                       # Number of times complete TLB was flushed
system.cpu0.dtb.flush_tlb_mva                     352                       # Number of times TLB was flushed by MVA
system.cpu0.dtb.flush_tlb_mva_asid                  0                       # Number of times TLB was flushed by MVA & ASID
system.cpu0.dtb.flush_tlb_asid                      0                       # Number of times TLB was flushed by ASID
system.cpu0.dtb.flush_entries                    2915                       # Number of entries that have been flushed from TLB
system.cpu0.dtb.align_faults                        0                       # Number of TLB faults due to alignment restrictions
system.cpu0.dtb.prefetch_faults                   721                       # Number of TLB faults due to prefetch
system.cpu0.dtb.domain_faults                       0                       # Number of TLB faults due to domain restrictions
system.cpu0.dtb.perms_faults                      173                       # Number of TLB faults due to permissions restrictions
system.cpu0.dtb.read_accesses                12034220                       # DTB read accesses
system.cpu0.dtb.write_accesses                9398810                       # DTB write accesses
system.cpu0.dtb.inst_accesses                       0                       # ITB inst accesses
system.cpu0.dtb.hits                         21428037                       # DTB hits
system.cpu0.dtb.misses                           4993                       # DTB misses
system.cpu0.dtb.accesses                     21433030                       # DTB accesses
system.cpu0.istage2_mmu.stage2_tlb.walker.walks            0                       # Table walker walks requested
system.cpu0.istage2_mmu.stage2_tlb.walker.walkRequestOrigin_Requested::Data            0                       # Table walker requests started/completed, data/inst
system.cpu0.istage2_mmu.stage2_tlb.walker.walkRequestOrigin_Requested::Inst            0                       # Table walker requests started/completed, data/inst
system.cpu0.istage2_mmu.stage2_tlb.walker.walkRequestOrigin_Requested::total            0                       # Table walker requests started/completed, data/inst
system.cpu0.istage2_mmu.stage2_tlb.walker.walkRequestOrigin_Completed::Data            0                       # Table walker requests started/completed, data/inst
system.cpu0.istage2_mmu.stage2_tlb.walker.walkRequestOrigin_Completed::Inst            0                       # Table walker requests started/completed, data/inst
system.cpu0.istage2_mmu.stage2_tlb.walker.walkRequestOrigin_Completed::total            0                       # Table walker requests started/completed, data/inst
system.cpu0.istage2_mmu.stage2_tlb.walker.walkRequestOrigin::total            0                       # Table walker requests started/completed, data/inst
system.cpu0.istage2_mmu.stage2_tlb.inst_hits            0                       # ITB inst hits
system.cpu0.istage2_mmu.stage2_tlb.inst_misses            0                       # ITB inst misses
system.cpu0.istage2_mmu.stage2_tlb.read_hits            0                       # DTB read hits
system.cpu0.istage2_mmu.stage2_tlb.read_misses            0                       # DTB read misses
system.cpu0.istage2_mmu.stage2_tlb.write_hits            0                       # DTB write hits
system.cpu0.istage2_mmu.stage2_tlb.write_misses            0                       # DTB write misses
system.cpu0.istage2_mmu.stage2_tlb.flush_tlb            0                       # Number of times complete TLB was flushed
system.cpu0.istage2_mmu.stage2_tlb.flush_tlb_mva            0                       # Number of times TLB was flushed by MVA
system.cpu0.istage2_mmu.stage2_tlb.flush_tlb_mva_asid            0                       # Number of times TLB was flushed by MVA & ASID
system.cpu0.istage2_mmu.stage2_tlb.flush_tlb_asid            0                       # Number of times TLB was flushed by ASID
system.cpu0.istage2_mmu.stage2_tlb.flush_entries            0                       # Number of entries that have been flushed from TLB
system.cpu0.istage2_mmu.stage2_tlb.align_faults            0                       # Number of TLB faults due to alignment restrictions
system.cpu0.istage2_mmu.stage2_tlb.prefetch_faults            0                       # Number of TLB faults due to prefetch
system.cpu0.istage2_mmu.stage2_tlb.domain_faults            0                       # Number of TLB faults due to domain restrictions
system.cpu0.istage2_mmu.stage2_tlb.perms_faults            0                       # Number of TLB faults due to permissions restrictions
system.cpu0.istage2_mmu.stage2_tlb.read_accesses            0                       # DTB read accesses
system.cpu0.istage2_mmu.stage2_tlb.write_accesses            0                       # DTB write accesses
system.cpu0.istage2_mmu.stage2_tlb.inst_accesses            0                       # ITB inst accesses
system.cpu0.istage2_mmu.stage2_tlb.hits             0                       # DTB hits
system.cpu0.istage2_mmu.stage2_tlb.misses            0                       # DTB misses
system.cpu0.istage2_mmu.stage2_tlb.accesses            0                       # DTB accesses
system.cpu0.itb.walker.walks                     2307                       # Table walker walks requested
system.cpu0.itb.walker.walksShort                2307                       # Table walker walks initiated with short descriptors
system.cpu0.itb.walker.walkWaitTime::samples         2307                       # Table walker wait (enqueue to first request) latency
system.cpu0.itb.walker.walkWaitTime::0           2307    100.00%    100.00% # Table walker wait (enqueue to first request) latency
system.cpu0.itb.walker.walkWaitTime::total         2307                       # Table walker wait (enqueue to first request) latency
system.cpu0.itb.walker.walksPending::samples  57346094376                       # Table walker pending requests distribution
system.cpu0.itb.walker.walksPending::mean     1.255417                       # Table walker pending requests distribution
system.cpu0.itb.walker.walksPending::0   -14647174874    -25.54%    -25.54% # Table walker pending requests distribution
system.cpu0.itb.walker.walksPending::1    71993269250    125.54%    100.00% # Table walker pending requests distribution
system.cpu0.itb.walker.walksPending::total  57346094376                       # Table walker pending requests distribution
system.cpu0.itb.walker.walkPageSizes::4K         1275     74.08%     74.08% # Table walker page sizes translated
system.cpu0.itb.walker.walkPageSizes::1M          446     25.92%    100.00% # Table walker page sizes translated
system.cpu0.itb.walker.walkPageSizes::total         1721                       # Table walker page sizes translated
system.cpu0.itb.walker.walkRequestOrigin_Requested::Data            0                       # Table walker requests started/completed, data/inst
system.cpu0.itb.walker.walkRequestOrigin_Requested::Inst         2307                       # Table walker requests started/completed, data/inst
system.cpu0.itb.walker.walkRequestOrigin_Requested::total         2307                       # Table walker requests started/completed, data/inst
system.cpu0.itb.walker.walkRequestOrigin_Completed::Data            0                       # Table walker requests started/completed, data/inst
system.cpu0.itb.walker.walkRequestOrigin_Completed::Inst         1721                       # Table walker requests started/completed, data/inst
system.cpu0.itb.walker.walkRequestOrigin_Completed::total         1721                       # Table walker requests started/completed, data/inst
system.cpu0.itb.walker.walkRequestOrigin::total         4028                       # Table walker requests started/completed, data/inst
system.cpu0.itb.inst_hits                    57257258                       # ITB inst hits
system.cpu0.itb.inst_misses                      2307                       # ITB inst misses
system.cpu0.itb.read_hits                           0                       # DTB read hits
system.cpu0.itb.read_misses                         0                       # DTB read misses
system.cpu0.itb.write_hits                          0                       # DTB write hits
system.cpu0.itb.write_misses                        0                       # DTB write misses
system.cpu0.itb.flush_tlb                         171                       # Number of times complete TLB was flushed
system.cpu0.itb.flush_tlb_mva                     352                       # Number of times TLB was flushed by MVA
system.cpu0.itb.flush_tlb_mva_asid                  0                       # Number of times TLB was flushed by MVA & ASID
system.cpu0.itb.flush_tlb_asid                      0                       # Number of times TLB was flushed by ASID
system.cpu0.itb.flush_entries                    1727                       # Number of entries that have been flushed from TLB
system.cpu0.itb.align_faults                        0                       # Number of TLB faults due to alignment restrictions
system.cpu0.itb.prefetch_faults                     0                       # Number of TLB faults due to prefetch
system.cpu0.itb.domain_faults                       0                       # Number of TLB faults due to domain restrictions
system.cpu0.itb.perms_faults                        0                       # Number of TLB faults due to permissions restrictions
system.cpu0.itb.read_accesses                       0                       # DTB read accesses
system.cpu0.itb.write_accesses                      0                       # DTB write accesses
system.cpu0.itb.inst_accesses                57259565                       # ITB inst accesses
system.cpu0.itb.hits                         57257258                       # DTB hits
system.cpu0.itb.misses                           2307                       # DTB misses
system.cpu0.itb.accesses                     57259565                       # DTB accesses
system.cpu0.numCycles                        69320920                       # number of cpu cycles simulated
system.cpu0.numWorkItemsStarted                     0                       # number of work items this cpu started
system.cpu0.numWorkItemsCompleted                   0                       # number of work items this cpu completed
system.cpu0.committedInsts                   55846469                       # Number of instructions committed
system.cpu0.committedOps                     67799019                       # Number of ops (including micro ops) committed
system.cpu0.num_int_alu_accesses             59476753                       # Number of integer alu accesses
system.cpu0.num_fp_alu_accesses                  4636                       # Number of float alu accesses
system.cpu0.num_func_calls                    5739649                       # number of times a function call or return occured
system.cpu0.num_conditional_control_insts      7404981                       # number of instructions that are conditional controls
system.cpu0.num_int_insts                    59476753                       # number of integer instructions
system.cpu0.num_fp_insts                         4636                       # number of float instructions
system.cpu0.num_int_register_reads          109855675                       # number of times the integer registers were read
system.cpu0.num_int_register_writes          41239490                       # number of times the integer registers were written
system.cpu0.num_fp_register_reads                3530                       # number of times the floating registers were read
system.cpu0.num_fp_register_writes               1108                       # number of times the floating registers were written
system.cpu0.num_cc_register_reads           206363052                       # number of times the CC registers were read
system.cpu0.num_cc_register_writes           25211275                       # number of times the CC registers were written
system.cpu0.num_mem_refs                     21994746                       # number of memory refs
system.cpu0.num_load_insts                   12174830                       # Number of load instructions
system.cpu0.num_store_insts                   9819916                       # Number of store instructions
system.cpu0.num_idle_cycles              65448484.972740                       # Number of idle cycles
system.cpu0.num_busy_cycles              3872435.027260                       # Number of busy cycles
system.cpu0.not_idle_fraction                0.055862                       # Percentage of non-idle cycles
system.cpu0.idle_fraction                    0.944138                       # Percentage of idle cycles
system.cpu0.Branches                         13529823                       # Number of branches fetched
system.cpu0.op_class::No_OpClass                 2175      0.00%      0.00% # Class of executed instruction
system.cpu0.op_class::IntAlu                 46835768     67.99%     67.99% # Class of executed instruction
system.cpu0.op_class::IntMult                   49875      0.07%     68.07% # Class of executed instruction
system.cpu0.op_class::IntDiv                        0      0.00%     68.07% # Class of executed instruction
system.cpu0.op_class::FloatAdd                      0      0.00%     68.07% # Class of executed instruction
system.cpu0.op_class::FloatCmp                      0      0.00%     68.07% # Class of executed instruction
system.cpu0.op_class::FloatCvt                      0      0.00%     68.07% # Class of executed instruction
system.cpu0.op_class::FloatMult                     0      0.00%     68.07% # Class of executed instruction
system.cpu0.op_class::FloatDiv                      0      0.00%     68.07% # Class of executed instruction
system.cpu0.op_class::FloatSqrt                     0      0.00%     68.07% # Class of executed instruction
system.cpu0.op_class::SimdAdd                       0      0.00%     68.07% # Class of executed instruction
system.cpu0.op_class::SimdAddAcc                    0      0.00%     68.07% # Class of executed instruction
system.cpu0.op_class::SimdAlu                       0      0.00%     68.07% # Class of executed instruction
system.cpu0.op_class::SimdCmp                       0      0.00%     68.07% # Class of executed instruction
system.cpu0.op_class::SimdCvt                       0      0.00%     68.07% # Class of executed instruction
system.cpu0.op_class::SimdMisc                      0      0.00%     68.07% # Class of executed instruction
system.cpu0.op_class::SimdMult                      0      0.00%     68.07% # Class of executed instruction
system.cpu0.op_class::SimdMultAcc                   0      0.00%     68.07% # Class of executed instruction
system.cpu0.op_class::SimdShift                     0      0.00%     68.07% # Class of executed instruction
system.cpu0.op_class::SimdShiftAcc                  0      0.00%     68.07% # Class of executed instruction
system.cpu0.op_class::SimdSqrt                      0      0.00%     68.07% # Class of executed instruction
system.cpu0.op_class::SimdFloatAdd                  0      0.00%     68.07% # Class of executed instruction
system.cpu0.op_class::SimdFloatAlu                  0      0.00%     68.07% # Class of executed instruction
system.cpu0.op_class::SimdFloatCmp                  0      0.00%     68.07% # Class of executed instruction
system.cpu0.op_class::SimdFloatCvt                  0      0.00%     68.07% # Class of executed instruction
system.cpu0.op_class::SimdFloatDiv                  0      0.00%     68.07% # Class of executed instruction
system.cpu0.op_class::SimdFloatMisc              3855      0.01%     68.07% # Class of executed instruction
system.cpu0.op_class::SimdFloatMult                 0      0.00%     68.07% # Class of executed instruction
system.cpu0.op_class::SimdFloatMultAcc              0      0.00%     68.07% # Class of executed instruction
system.cpu0.op_class::SimdFloatSqrt                 0      0.00%     68.07% # Class of executed instruction
system.cpu0.op_class::MemRead                12174830     17.67%     85.74% # Class of executed instruction
system.cpu0.op_class::MemWrite                9819916     14.26%    100.00% # Class of executed instruction
system.cpu0.op_class::IprAccess                     0      0.00%    100.00% # Class of executed instruction
system.cpu0.op_class::InstPrefetch                  0      0.00%    100.00% # Class of executed instruction
system.cpu0.op_class::total                  68886419                       # Class of executed instruction
system.cpu0.kern.inst.arm                           0                       # number of arm instructions executed
system.cpu0.kern.inst.quiesce                    3088                       # number of quiesce instructions executed
system.cpu0.dcache.tags.replacements           833472                       # number of replacements
system.cpu0.dcache.tags.tagsinuse          511.996601                       # Cycle average of tags in use
system.cpu0.dcache.tags.total_refs           46054787                       # Total number of references to valid blocks.
system.cpu0.dcache.tags.sampled_refs           833984                       # Sample count of references to valid blocks.
system.cpu0.dcache.tags.avg_refs            55.222627                       # Average number of references to valid blocks.
system.cpu0.dcache.tags.warmup_cycle         23053500                       # Cycle when the warmup percentage was hit.
system.cpu0.dcache.tags.occ_blocks::cpu0.data   479.685791                       # Average occupied blocks per requestor
system.cpu0.dcache.tags.occ_blocks::cpu1.data    11.479753                       # Average occupied blocks per requestor
system.cpu0.dcache.tags.occ_blocks::cpu2.data     6.026378                       # Average occupied blocks per requestor
system.cpu0.dcache.tags.occ_blocks::cpu3.data    14.804679                       # Average occupied blocks per requestor
system.cpu0.dcache.tags.occ_percent::cpu0.data     0.936886                       # Average percentage of cache occupancy
system.cpu0.dcache.tags.occ_percent::cpu1.data     0.022421                       # Average percentage of cache occupancy
system.cpu0.dcache.tags.occ_percent::cpu2.data     0.011770                       # Average percentage of cache occupancy
system.cpu0.dcache.tags.occ_percent::cpu3.data     0.028915                       # Average percentage of cache occupancy
system.cpu0.dcache.tags.occ_percent::total     0.999993                       # Average percentage of cache occupancy
system.cpu0.dcache.tags.occ_task_id_blocks::1024          512                       # Occupied blocks per task id
system.cpu0.dcache.tags.age_task_id_blocks_1024::0           92                       # Occupied blocks per task id
system.cpu0.dcache.tags.age_task_id_blocks_1024::1          370                       # Occupied blocks per task id
system.cpu0.dcache.tags.age_task_id_blocks_1024::2           50                       # Occupied blocks per task id
system.cpu0.dcache.tags.occ_task_id_percent::1024            1                       # Percentage of cache occupancy per task id
system.cpu0.dcache.tags.tag_accesses        193142781                       # Number of tag accesses
system.cpu0.dcache.tags.data_accesses       193142781                       # Number of data accesses
system.cpu0.dcache.ReadReq_hits::cpu0.data     11422254                       # number of ReadReq hits
system.cpu0.dcache.ReadReq_hits::cpu1.data      3666502                       # number of ReadReq hits
system.cpu0.dcache.ReadReq_hits::cpu2.data      4281798                       # number of ReadReq hits
system.cpu0.dcache.ReadReq_hits::cpu3.data      6456449                       # number of ReadReq hits
system.cpu0.dcache.ReadReq_hits::total       25827003                       # number of ReadReq hits
system.cpu0.dcache.WriteReq_hits::cpu0.data      9049094                       # number of WriteReq hits
system.cpu0.dcache.WriteReq_hits::cpu1.data      2626435                       # number of WriteReq hits
system.cpu0.dcache.WriteReq_hits::cpu2.data      3309918                       # number of WriteReq hits
system.cpu0.dcache.WriteReq_hits::cpu3.data      3942780                       # number of WriteReq hits
system.cpu0.dcache.WriteReq_hits::total      18928227                       # number of WriteReq hits
system.cpu0.dcache.SoftPFReq_hits::cpu0.data       169795                       # number of SoftPFReq hits
system.cpu0.dcache.SoftPFReq_hits::cpu1.data        55205                       # number of SoftPFReq hits
system.cpu0.dcache.SoftPFReq_hits::cpu2.data        74478                       # number of SoftPFReq hits
system.cpu0.dcache.SoftPFReq_hits::cpu3.data        86629                       # number of SoftPFReq hits
system.cpu0.dcache.SoftPFReq_hits::total       386107                       # number of SoftPFReq hits
system.cpu0.dcache.LoadLockedReq_hits::cpu0.data       210372                       # number of LoadLockedReq hits
system.cpu0.dcache.LoadLockedReq_hits::cpu1.data        75336                       # number of LoadLockedReq hits
system.cpu0.dcache.LoadLockedReq_hits::cpu2.data        77039                       # number of LoadLockedReq hits
system.cpu0.dcache.LoadLockedReq_hits::cpu3.data        87626                       # number of LoadLockedReq hits
system.cpu0.dcache.LoadLockedReq_hits::total       450373                       # number of LoadLockedReq hits
system.cpu0.dcache.StoreCondReq_hits::cpu0.data       211678                       # number of StoreCondReq hits
system.cpu0.dcache.StoreCondReq_hits::cpu1.data        77328                       # number of StoreCondReq hits
system.cpu0.dcache.StoreCondReq_hits::cpu2.data        79652                       # number of StoreCondReq hits
system.cpu0.dcache.StoreCondReq_hits::cpu3.data        91425                       # number of StoreCondReq hits
system.cpu0.dcache.StoreCondReq_hits::total       460083                       # number of StoreCondReq hits
system.cpu0.dcache.demand_hits::cpu0.data     20471348                       # number of demand (read+write) hits
system.cpu0.dcache.demand_hits::cpu1.data      6292937                       # number of demand (read+write) hits
system.cpu0.dcache.demand_hits::cpu2.data      7591716                       # number of demand (read+write) hits
system.cpu0.dcache.demand_hits::cpu3.data     10399229                       # number of demand (read+write) hits
system.cpu0.dcache.demand_hits::total        44755230                       # number of demand (read+write) hits
system.cpu0.dcache.overall_hits::cpu0.data     20641143                       # number of overall hits
system.cpu0.dcache.overall_hits::cpu1.data      6348142                       # number of overall hits
system.cpu0.dcache.overall_hits::cpu2.data      7666194                       # number of overall hits
system.cpu0.dcache.overall_hits::cpu3.data     10485858                       # number of overall hits
system.cpu0.dcache.overall_hits::total       45141337                       # number of overall hits
system.cpu0.dcache.ReadReq_misses::cpu0.data       163446                       # number of ReadReq misses
system.cpu0.dcache.ReadReq_misses::cpu1.data        56575                       # number of ReadReq misses
system.cpu0.dcache.ReadReq_misses::cpu2.data        94619                       # number of ReadReq misses
system.cpu0.dcache.ReadReq_misses::cpu3.data       204651                       # number of ReadReq misses
system.cpu0.dcache.ReadReq_misses::total       519291                       # number of ReadReq misses
system.cpu0.dcache.WriteReq_misses::cpu0.data       128471                       # number of WriteReq misses
system.cpu0.dcache.WriteReq_misses::cpu1.data        30419                       # number of WriteReq misses
system.cpu0.dcache.WriteReq_misses::cpu2.data        95949                       # number of WriteReq misses
system.cpu0.dcache.WriteReq_misses::cpu3.data      1094862                       # number of WriteReq misses
system.cpu0.dcache.WriteReq_misses::total      1349701                       # number of WriteReq misses
system.cpu0.dcache.SoftPFReq_misses::cpu0.data        50858                       # number of SoftPFReq misses
system.cpu0.dcache.SoftPFReq_misses::cpu1.data        17638                       # number of SoftPFReq misses
system.cpu0.dcache.SoftPFReq_misses::cpu2.data        31597                       # number of SoftPFReq misses
system.cpu0.dcache.SoftPFReq_misses::cpu3.data        38338                       # number of SoftPFReq misses
system.cpu0.dcache.SoftPFReq_misses::total       138431                       # number of SoftPFReq misses
system.cpu0.dcache.LoadLockedReq_misses::cpu0.data         3927                       # number of LoadLockedReq misses
system.cpu0.dcache.LoadLockedReq_misses::cpu1.data         2640                       # number of LoadLockedReq misses
system.cpu0.dcache.LoadLockedReq_misses::cpu2.data         3575                       # number of LoadLockedReq misses
system.cpu0.dcache.LoadLockedReq_misses::cpu3.data         7812                       # number of LoadLockedReq misses
system.cpu0.dcache.LoadLockedReq_misses::total        17954                       # number of LoadLockedReq misses
system.cpu0.dcache.StoreCondReq_misses::cpu3.data           23                       # number of StoreCondReq misses
system.cpu0.dcache.StoreCondReq_misses::total           23                       # number of StoreCondReq misses
system.cpu0.dcache.demand_misses::cpu0.data       291917                       # number of demand (read+write) misses
system.cpu0.dcache.demand_misses::cpu1.data        86994                       # number of demand (read+write) misses
system.cpu0.dcache.demand_misses::cpu2.data       190568                       # number of demand (read+write) misses
system.cpu0.dcache.demand_misses::cpu3.data      1299513                       # number of demand (read+write) misses
system.cpu0.dcache.demand_misses::total       1868992                       # number of demand (read+write) misses
system.cpu0.dcache.overall_misses::cpu0.data       342775                       # number of overall misses
system.cpu0.dcache.overall_misses::cpu1.data       104632                       # number of overall misses
system.cpu0.dcache.overall_misses::cpu2.data       222165                       # number of overall misses
system.cpu0.dcache.overall_misses::cpu3.data      1337851                       # number of overall misses
system.cpu0.dcache.overall_misses::total      2007423                       # number of overall misses
system.cpu0.dcache.ReadReq_miss_latency::cpu1.data   1024208500                       # number of ReadReq miss cycles
system.cpu0.dcache.ReadReq_miss_latency::cpu2.data   1411816500                       # number of ReadReq miss cycles
system.cpu0.dcache.ReadReq_miss_latency::cpu3.data   3682555500                       # number of ReadReq miss cycles
system.cpu0.dcache.ReadReq_miss_latency::total   6118580500                       # number of ReadReq miss cycles
system.cpu0.dcache.WriteReq_miss_latency::cpu1.data   1841305000                       # number of WriteReq miss cycles
system.cpu0.dcache.WriteReq_miss_latency::cpu2.data   6494222497                       # number of WriteReq miss cycles
system.cpu0.dcache.WriteReq_miss_latency::cpu3.data  77954846454                       # number of WriteReq miss cycles
system.cpu0.dcache.WriteReq_miss_latency::total  86290373951                       # number of WriteReq miss cycles
system.cpu0.dcache.LoadLockedReq_miss_latency::cpu1.data     35655500                       # number of LoadLockedReq miss cycles
system.cpu0.dcache.LoadLockedReq_miss_latency::cpu2.data     49776000                       # number of LoadLockedReq miss cycles
system.cpu0.dcache.LoadLockedReq_miss_latency::cpu3.data    112749000                       # number of LoadLockedReq miss cycles
system.cpu0.dcache.LoadLockedReq_miss_latency::total    198180500                       # number of LoadLockedReq miss cycles
system.cpu0.dcache.StoreCondReq_miss_latency::cpu3.data       799000                       # number of StoreCondReq miss cycles
system.cpu0.dcache.StoreCondReq_miss_latency::total       799000                       # number of StoreCondReq miss cycles
[...]
system.l2c.overall_avg_mshr_miss_latency::cpu3.dtb.walker 123984.126984                       # average overall mshr miss latency
system.l2c.overall_avg_mshr_miss_latency::cpu3.inst 123925.395334                       # average overall mshr miss latency
system.l2c.overall_avg_mshr_miss_latency::cpu3.data 123036.141287                       # average overall mshr miss latency
system.l2c.overall_avg_mshr_miss_latency::total 121127.374296                       # average overall mshr miss latency
system.l2c.ReadReq_avg_mshr_uncacheable_latency::cpu1.data 154026.872737                       # average ReadReq mshr uncacheable latency
system.l2c.ReadReq_avg_mshr_uncacheable_latency::cpu2.data 176544.019054                       # average ReadReq mshr uncacheable latency
system.l2c.ReadReq_avg_mshr_uncacheable_latency::cpu3.data 191384.875445                       # average ReadReq mshr uncacheable latency
system.l2c.ReadReq_avg_mshr_uncacheable_latency::total 179045.536774                       # average ReadReq mshr uncacheable latency
system.l2c.WriteReq_avg_mshr_uncacheable_latency::cpu1.data 154747.096995                       # average WriteReq mshr uncacheable latency
system.l2c.WriteReq_avg_mshr_uncacheable_latency::cpu2.data 174221.257143                       # average WriteReq mshr uncacheable latency
system.l2c.WriteReq_avg_mshr_uncacheable_latency::cpu3.data 188574.021299                       # average WriteReq mshr uncacheable latency
system.l2c.WriteReq_avg_mshr_uncacheable_latency::total 176989.298497                       # average WriteReq mshr uncacheable latency
system.l2c.overall_avg_mshr_uncacheable_latency::cpu1.data 154350.360485                       # average overall mshr uncacheable latency
system.l2c.overall_avg_mshr_uncacheable_latency::cpu2.data 175532.161705                       # average overall mshr uncacheable latency
system.l2c.overall_avg_mshr_uncacheable_latency::cpu3.data 190143.571571                       # average overall mshr uncacheable latency
system.l2c.overall_avg_mshr_uncacheable_latency::total 178138.191352                       # average overall mshr uncacheable latency
system.l2c.no_allocate_misses                       0                       # Number of misses that were no-allocate
system.membus.trans_dist::ReadReq               40114                       # Transaction distribution
system.membus.trans_dist::ReadResp              76298                       # Transaction distribution
system.membus.trans_dist::WriteReq              27565                       # Transaction distribution
system.membus.trans_dist::WriteResp             27565                       # Transaction distribution
system.membus.trans_dist::Writeback            131166                       # Transaction distribution
system.membus.trans_dist::CleanEvict             8718                       # Transaction distribution
system.membus.trans_dist::UpgradeReq             4548                       # Transaction distribution
system.membus.trans_dist::SCUpgradeReq              7                       # Transaction distribution
system.membus.trans_dist::UpgradeResp            4555                       # Transaction distribution
system.membus.trans_dist::ReadExReq            137947                       # Transaction distribution
system.membus.trans_dist::ReadExResp           137947                       # Transaction distribution
system.membus.trans_dist::ReadSharedReq         36184                       # Transaction distribution
system.membus.trans_dist::InvalidateReq         36194                       # Transaction distribution
system.membus.trans_dist::InvalidateResp        36194                       # Transaction distribution
system.membus.pkt_count_system.l2c.mem_side::system.bridge.slave       105436                       # Packet count per connected master and slave (bytes)
system.membus.pkt_count_system.l2c.mem_side::system.realview.nvmem.port           10                       # Packet count per connected master and slave (bytes)
system.membus.pkt_count_system.l2c.mem_side::system.realview.gic.pio         2006                       # Packet count per connected master and slave (bytes)
system.membus.pkt_count_system.l2c.mem_side::system.physmem.port       488332                       # Packet count per connected master and slave (bytes)
system.membus.pkt_count_system.l2c.mem_side::total       595784                       # Packet count per connected master and slave (bytes)
system.membus.pkt_count_system.iocache.mem_side::system.physmem.port       108913                       # Packet count per connected master and slave (bytes)
system.membus.pkt_count_system.iocache.mem_side::total       108913                       # Packet count per connected master and slave (bytes)
system.membus.pkt_count::total                 704697                       # Packet count per connected master and slave (bytes)
system.membus.pkt_size_system.l2c.mem_side::system.bridge.slave       159093                       # Cumulative packet size per connected master and slave (bytes)
system.membus.pkt_size_system.l2c.mem_side::system.realview.nvmem.port           20                       # Cumulative packet size per connected master and slave (bytes)
system.membus.pkt_size_system.l2c.mem_side::system.realview.gic.pio         4012                       # Cumulative packet size per connected master and slave (bytes)
system.membus.pkt_size_system.l2c.mem_side::system.physmem.port     17254780                       # Cumulative packet size per connected master and slave (bytes)
system.membus.pkt_size_system.l2c.mem_side::total     17417905                       # Cumulative packet size per connected master and slave (bytes)
system.membus.pkt_size_system.iocache.mem_side::system.physmem.port      2320704                       # Cumulative packet size per connected master and slave (bytes)
system.membus.pkt_size_system.iocache.mem_side::total      2320704                       # Cumulative packet size per connected master and slave (bytes)
system.membus.pkt_size::total                19738609                       # Cumulative packet size per connected master and slave (bytes)
system.membus.snoops                              305                       # Total snoops (count)
system.membus.snoop_fanout::samples            422679                       # Request fanout histogram
system.membus.snoop_fanout::mean                    1                       # Request fanout histogram
system.membus.snoop_fanout::stdev                   0                       # Request fanout histogram
system.membus.snoop_fanout::underflows              0      0.00%      0.00% # Request fanout histogram
system.membus.snoop_fanout::0                       0      0.00%      0.00% # Request fanout histogram
system.membus.snoop_fanout::1                  422679    100.00%    100.00% # Request fanout histogram
system.membus.snoop_fanout::2                       0      0.00%    100.00% # Request fanout histogram
system.membus.snoop_fanout::overflows               0      0.00%    100.00% # Request fanout histogram
system.membus.snoop_fanout::min_value               1                       # Request fanout histogram
system.membus.snoop_fanout::max_value               1                       # Request fanout histogram
system.membus.snoop_fanout::total              422679                       # Request fanout histogram
system.membus.reqLayer0.occupancy            54961500                       # Layer occupancy (ticks)
system.membus.reqLayer0.utilization               0.0                       # Layer utilization (%)
system.membus.reqLayer2.occupancy              673000                       # Layer occupancy (ticks)
system.membus.reqLayer2.utilization               0.0                       # Layer utilization (%)
system.membus.reqLayer5.occupancy           481696064                       # Layer occupancy (ticks)
system.membus.reqLayer5.utilization               0.0                       # Layer utilization (%)
system.membus.respLayer2.occupancy          584907455                       # Layer occupancy (ticks)
system.membus.respLayer2.utilization              0.0                       # Layer utilization (%)
system.membus.respLayer3.occupancy           27319765                       # Layer occupancy (ticks)
system.membus.respLayer3.utilization              0.0                       # Layer utilization (%)
system.realview.ethernet.descDMAReads               0                       # Number of descriptors the device read w/ DMA
system.realview.ethernet.descDMAWrites              0                       # Number of descriptors the device wrote w/ DMA
system.realview.ethernet.descDmaReadBytes            0                       # number of descriptor bytes read w/ DMA
system.realview.ethernet.descDmaWriteBytes            0                       # number of descriptor bytes write w/ DMA
system.realview.ethernet.postedSwi                  0                       # number of software interrupts posted to CPU
system.realview.ethernet.coalescedSwi             nan                       # average number of Swi's coalesced into each post
system.realview.ethernet.totalSwi                   0                       # total number of Swi written to ISR
system.realview.ethernet.postedRxIdle               0                       # number of rxIdle interrupts posted to CPU
system.realview.ethernet.coalescedRxIdle          nan                       # average number of RxIdle's coalesced into each post
system.realview.ethernet.totalRxIdle                0                       # total number of RxIdle written to ISR
system.realview.ethernet.postedRxOk                 0                       # number of RxOk interrupts posted to CPU
system.realview.ethernet.coalescedRxOk            nan                       # average number of RxOk's coalesced into each post
system.realview.ethernet.totalRxOk                  0                       # total number of RxOk written to ISR
system.realview.ethernet.postedRxDesc               0                       # number of RxDesc interrupts posted to CPU
system.realview.ethernet.coalescedRxDesc          nan                       # average number of RxDesc's coalesced into each post
system.realview.ethernet.totalRxDesc                0                       # total number of RxDesc written to ISR
system.realview.ethernet.postedTxOk                 0                       # number of TxOk interrupts posted to CPU
system.realview.ethernet.coalescedTxOk            nan                       # average number of TxOk's coalesced into each post
system.realview.ethernet.totalTxOk                  0                       # total number of TxOk written to ISR
system.realview.ethernet.postedTxIdle               0                       # number of TxIdle interrupts posted to CPU
system.realview.ethernet.coalescedTxIdle          nan                       # average number of TxIdle's coalesced into each post
system.realview.ethernet.totalTxIdle                0                       # total number of TxIdle written to ISR
system.realview.ethernet.postedTxDesc               0                       # number of TxDesc interrupts posted to CPU
system.realview.ethernet.coalescedTxDesc          nan                       # average number of TxDesc's coalesced into each post
system.realview.ethernet.totalTxDesc                0                       # total number of TxDesc written to ISR
system.realview.ethernet.postedRxOrn                0                       # number of RxOrn posted to CPU
system.realview.ethernet.coalescedRxOrn           nan                       # average number of RxOrn's coalesced into each post
system.realview.ethernet.totalRxOrn                 0                       # total number of RxOrn written to ISR
system.realview.ethernet.coalescedTotal           nan                       # average number of interrupts coalesced into each post
system.realview.ethernet.postedInterrupts            0                       # number of posts to CPU
system.realview.ethernet.droppedPackets             0                       # number of packets dropped
system.realview.realview_io.osc_pxl.clock        42105                       # Clock period in ticks
system.realview.realview_io.osc_clcd.clock        42105                       # Clock period in ticks
system.realview.realview_io.osc_cpu.clock        16667                       # Clock period in ticks
system.realview.realview_io.osc_ddr.clock        25000                       # Clock period in ticks
system.realview.realview_io.osc_hsbm.clock        25000                       # Clock period in ticks
system.realview.realview_io.osc_mcc.clock        20000                       # Clock period in ticks
system.realview.realview_io.osc_peripheral.clock        41667                       # Clock period in ticks
system.realview.realview_io.osc_smb.clock        20000                       # Clock period in ticks
system.realview.realview_io.osc_sys.clock        16667                       # Clock period in ticks
system.realview.realview_io.osc_system_bus.clock        41667                       # Clock period in ticks
system.toL2Bus.snoop_filter.tot_requests      5650262                       # Total number of requests made to the snoop filter.
system.toL2Bus.snoop_filter.hit_single_requests      2839838                       # Number of requests hitting in the snoop filter with a single holder of the requested data.
system.toL2Bus.snoop_filter.hit_multi_requests        45471                       # Number of requests hitting in the snoop filter with multiple (>1) holders of the requested data.
system.toL2Bus.snoop_filter.tot_snoops            619                       # Total number of snoops made to the snoop filter.
system.toL2Bus.snoop_filter.hit_single_snoops          619                       # Number of snoops hitting in the snoop filter with a single holder of the requested data.
system.toL2Bus.snoop_filter.hit_multi_snoops            0                       # Number of snoops hitting in the snoop filter with multiple (>1) holders of the requested data.
system.toL2Bus.trans_dist::ReadReq             112063                       # Transaction distribution
system.toL2Bus.trans_dist::ReadResp           2626235                       # Transaction distribution
system.toL2Bus.trans_dist::WriteReq             27565                       # Transaction distribution
system.toL2Bus.trans_dist::WriteResp            27565                       # Transaction distribution
system.toL2Bus.trans_dist::Writeback           760987                       # Transaction distribution
system.toL2Bus.trans_dist::CleanEvict         2076983                       # Transaction distribution
system.toL2Bus.trans_dist::UpgradeReq            2848                       # Transaction distribution
system.toL2Bus.trans_dist::SCUpgradeReq            23                       # Transaction distribution
system.toL2Bus.trans_dist::UpgradeResp           2870                       # Transaction distribution
system.toL2Bus.trans_dist::ReadExReq           296422                       # Transaction distribution
system.toL2Bus.trans_dist::ReadExResp          296422                       # Transaction distribution
system.toL2Bus.trans_dist::ReadCleanReq       1976439                       # Transaction distribution
system.toL2Bus.trans_dist::ReadSharedReq       537735                       # Transaction distribution
system.toL2Bus.trans_dist::InvalidateReq        15186                       # Transaction distribution
system.toL2Bus.pkt_count_system.cpu0.icache.mem_side::system.l2c.cpu_side      5908570                       # Packet count per connected master and slave (bytes)
system.toL2Bus.pkt_count_system.cpu0.dcache.mem_side::system.l2c.cpu_side      2617393                       # Packet count per connected master and slave (bytes)
system.toL2Bus.pkt_count_system.cpu0.itb.walker.dma::system.l2c.cpu_side        26301                       # Packet count per connected master and slave (bytes)
system.toL2Bus.pkt_count_system.cpu0.dtb.walker.dma::system.l2c.cpu_side       100850                       # Packet count per connected master and slave (bytes)
system.toL2Bus.pkt_count::total               8653114                       # Packet count per connected master and slave (bytes)
system.toL2Bus.pkt_size_system.cpu0.icache.mem_side::system.l2c.cpu_side    126520888                       # Cumulative packet size per connected master and slave (bytes)
system.toL2Bus.pkt_size_system.cpu0.dcache.mem_side::system.l2c.cpu_side     97861689                       # Cumulative packet size per connected master and slave (bytes)
system.toL2Bus.pkt_size_system.cpu0.itb.walker.dma::system.l2c.cpu_side        42712                       # Cumulative packet size per connected master and slave (bytes)
system.toL2Bus.pkt_size_system.cpu0.dtb.walker.dma::system.l2c.cpu_side       178096                       # Cumulative packet size per connected master and slave (bytes)
system.toL2Bus.pkt_size::total              224603385                       # Cumulative packet size per connected master and slave (bytes)
system.toL2Bus.snoops                          193657                       # Total snoops (count)
system.toL2Bus.snoop_fanout::samples          5938870                       # Request fanout histogram
system.toL2Bus.snoop_fanout::mean            0.020066                       # Request fanout histogram
system.toL2Bus.snoop_fanout::stdev           0.140226                       # Request fanout histogram
system.toL2Bus.snoop_fanout::underflows             0      0.00%      0.00% # Request fanout histogram
system.toL2Bus.snoop_fanout::0                5819701     97.99%     97.99% # Request fanout histogram
system.toL2Bus.snoop_fanout::1                 119169      2.01%    100.00% # Request fanout histogram
system.toL2Bus.snoop_fanout::2                      0      0.00%    100.00% # Request fanout histogram
system.toL2Bus.snoop_fanout::overflows              0      0.00%    100.00% # Request fanout histogram
system.toL2Bus.snoop_fanout::min_value              0                       # Request fanout histogram
system.toL2Bus.snoop_fanout::max_value              1                       # Request fanout histogram
system.toL2Bus.snoop_fanout::total            5938870                       # Request fanout histogram
system.toL2Bus.reqLayer0.occupancy         2186534999                       # Layer occupancy (ticks)
system.toL2Bus.reqLayer0.utilization              0.1                       # Layer utilization (%)
system.toL2Bus.snoopLayer0.occupancy           260919                       # Layer occupancy (ticks)
system.toL2Bus.snoopLayer0.utilization            0.0                       # Layer utilization (%)
system.toL2Bus.respLayer0.occupancy        1866037017                       # Layer occupancy (ticks)
system.toL2Bus.respLayer0.utilization             0.1                       # Layer utilization (%)
system.toL2Bus.respLayer1.occupancy         758288292                       # Layer occupancy (ticks)
system.toL2Bus.respLayer1.utilization             0.0                       # Layer utilization (%)
system.toL2Bus.respLayer2.occupancy          11457495                       # Layer occupancy (ticks)
system.toL2Bus.respLayer2.utilization             0.0                       # Layer utilization (%)
system.toL2Bus.respLayer3.occupancy          47843740                       # Layer occupancy (ticks)
system.toL2Bus.respLayer3.utilization             0.0                       # Layer utilization (%)
system.cpu3.kern.inst.arm                           0                       # number of arm instructions executed
system.cpu3.kern.inst.quiesce                       0                       # number of quiesce instructions executed

---------- End Simulation Statistics   ----------
