
---------- Begin Simulation Statistics ----------
sim_seconds                                  5.192526                       # Number of seconds simulated
sim_ticks                                5192526233000                       # Number of ticks simulated
final_tick                               5192526233000                       # Number of ticks from beginning of simulation (restored from checkpoints and never reset)
sim_freq                                 1000000000000                       # Frequency of simulated ticks
host_inst_rate                                1492668                       # Simulator instruction rate (inst/s)
host_op_rate                                  2877328                       # Simulator op (including micro ops) rate (op/s)
host_tick_rate                            60393582039                       # Simulator tick rate (ticks/s)
host_mem_usage                                 592376                       # Number of bytes of host memory used
host_seconds                                    85.98                       # Real time elapsed on the host
sim_insts                                   128336778                       # Number of instructions simulated
sim_ops                                     247387190                       # Number of ops (including micro ops) simulated
system.voltage_domain.voltage                       1                       # Voltage in Volts
system.clk_domain.clock                          1000                       # Clock period in ticks
system.physmem.bytes_read::pc.south_bridge.ide        28352                       # Number of bytes read from this memory
system.physmem.bytes_read::cpu.dtb.walker           64                       # Number of bytes read from this memory
system.physmem.bytes_read::cpu.itb.walker          320                       # Number of bytes read from this memory
system.physmem.bytes_read::cpu.inst            829632                       # Number of bytes read from this memory
system.physmem.bytes_read::cpu.data           9090688                       # Number of bytes read from this memory
system.physmem.bytes_read::total              9949056                       # Number of bytes read from this memory
system.physmem.bytes_inst_read::cpu.inst       829632                       # Number of instructions bytes read from this memory
system.physmem.bytes_inst_read::total          829632                       # Number of instructions bytes read from this memory
system.physmem.bytes_written::writebacks      5138240                       # Number of bytes written to this memory
system.physmem.bytes_written::pc.south_bridge.ide      2990080                       # Number of bytes written to this memory
system.physmem.bytes_written::total           8128320                       # Number of bytes written to this memory
system.physmem.num_reads::pc.south_bridge.ide          443                       # Number of read requests responded to by this memory
system.physmem.num_reads::cpu.dtb.walker            1                       # Number of read requests responded to by this memory
system.physmem.num_reads::cpu.itb.walker            5                       # Number of read requests responded to by this memory
system.physmem.num_reads::cpu.inst              12963                       # Number of read requests responded to by this memory
system.physmem.num_reads::cpu.data             142042                       # Number of read requests responded to by this memory
system.physmem.num_reads::total                155454                       # Number of read requests responded to by this memory
system.physmem.num_writes::writebacks           80285                       # Number of write requests responded to by this memory
system.physmem.num_writes::pc.south_bridge.ide        46720                       # Number of write requests responded to by this memory
system.physmem.num_writes::total               127005                       # Number of write requests responded to by this memory
system.physmem.bw_read::pc.south_bridge.ide         5460                       # Total read bandwidth from this memory (bytes/s)
system.physmem.bw_read::cpu.dtb.walker             12                       # Total read bandwidth from this memory (bytes/s)
system.physmem.bw_read::cpu.itb.walker             62                       # Total read bandwidth from this memory (bytes/s)
system.physmem.bw_read::cpu.inst               159774                       # Total read bandwidth from this memory (bytes/s)
system.physmem.bw_read::cpu.data              1750725                       # Total read bandwidth from this memory (bytes/s)
system.physmem.bw_read::total                 1916034                       # Total read bandwidth from this memory (bytes/s)
system.physmem.bw_inst_read::cpu.inst          159774                       # Instruction read bandwidth from this memory (bytes/s)
system.physmem.bw_inst_read::total             159774                       # Instruction read bandwidth from this memory (bytes/s)
system.physmem.bw_write::writebacks            989545                       # Write bandwidth from this memory (bytes/s)
system.physmem.bw_write::pc.south_bridge.ide       575843                       # Write bandwidth from this memory (bytes/s)
system.physmem.bw_write::total                1565388                       # Write bandwidth from this memory (bytes/s)
system.physmem.bw_total::writebacks            989545                       # Total bandwidth to/from this memory (bytes/s)
system.physmem.bw_total::pc.south_bridge.ide       581303                       # Total bandwidth to/from this memory (bytes/s)
system.physmem.bw_total::cpu.dtb.walker            12                       # Total bandwidth to/from this memory (bytes/s)
system.physmem.bw_total::cpu.itb.walker            62                       # Total bandwidth to/from this memory (bytes/s)
system.physmem.bw_total::cpu.inst              159774                       # Total bandwidth to/from this memory (bytes/s)
system.physmem.bw_total::cpu.data             1750725                       # Total bandwidth to/from this memory (bytes/s)
system.physmem.bw_total::total                3481422                       # Total bandwidth to/from this memory (bytes/s)
system.physmem.readReqs                        155454                       # Number of read requests accepted
system.physmem.writeReqs                       127005                       # Number of write requests accepted
system.physmem.readBursts                      155454                       # Number of DRAM read bursts, including those serviced by the write queue
system.physmem.writeBursts                     127005                       # Number of DRAM write bursts, including those merged in the write queue
system.physmem.bytesReadDRAM                  9932928                       # Total number of bytes read from DRAM
system.physmem.bytesReadWrQ                     16128                       # Total number of bytes read from write queue
system.physmem.bytesWritten                   8126720                       # Total number of bytes written to DRAM
system.physmem.bytesReadSys                   9949056                       # Total read bytes from the system interface side
system.physmem.bytesWrittenSys                8128320                       # Total written bytes from the system interface side
system.physmem.servicedByWrQ                      252                       # Number of DRAM read bursts serviced by the write queue
system.physmem.mergedWrBursts                       0                       # Number of DRAM write bursts merged with an existing one
system.physmem.neitherReadNorWriteReqs           1602                       # Number of requests that are neither read nor write
system.physmem.perBankRdBursts::0               10234                       # Per bank write bursts
system.physmem.perBankRdBursts::1                9830                       # Per bank write bursts
system.physmem.perBankRdBursts::2               10412                       # Per bank write bursts
system.physmem.perBankRdBursts::3                9937                       # Per bank write bursts
system.physmem.perBankRdBursts::4                9788                       # Per bank write bursts
system.physmem.perBankRdBursts::5                9348                       # Per bank write bursts
system.physmem.perBankRdBursts::6                9238                       # Per bank write bursts
system.physmem.perBankRdBursts::7                9473                       # Per bank write bursts
system.physmem.perBankRdBursts::8                9270                       # Per bank write bursts
system.physmem.perBankRdBursts::9                9085                       # Per bank write bursts
system.physmem.perBankRdBursts::10               9528                       # Per bank write bursts
system.physmem.perBankRdBursts::11               9619                       # Per bank write bursts
system.physmem.perBankRdBursts::12               9707                       # Per bank write bursts
system.physmem.perBankRdBursts::13              10058                       # Per bank write bursts
system.physmem.perBankRdBursts::14               9877                       # Per bank write bursts
system.physmem.perBankRdBursts::15               9798                       # Per bank write bursts
system.physmem.perBankWrBursts::0                8316                       # Per bank write bursts
system.physmem.perBankWrBursts::1                7729                       # Per bank write bursts
system.physmem.perBankWrBursts::2                8212                       # Per bank write bursts
system.physmem.perBankWrBursts::3                7860                       # Per bank write bursts
system.physmem.perBankWrBursts::4                8063                       # Per bank write bursts
system.physmem.perBankWrBursts::5                7657                       # Per bank write bursts
system.physmem.perBankWrBursts::6                7184                       # Per bank write bursts
system.physmem.perBankWrBursts::7                7824                       # Per bank write bursts
system.physmem.perBankWrBursts::8                7616                       # Per bank write bursts
system.physmem.perBankWrBursts::9                7570                       # Per bank write bursts
system.physmem.perBankWrBursts::10               7824                       # Per bank write bursts
system.physmem.perBankWrBursts::11               7928                       # Per bank write bursts
system.physmem.perBankWrBursts::12               8040                       # Per bank write bursts
system.physmem.perBankWrBursts::13               8642                       # Per bank write bursts
system.physmem.perBankWrBursts::14               8420                       # Per bank write bursts
system.physmem.perBankWrBursts::15               8095                       # Per bank write bursts
system.physmem.numRdRetry                           0                       # Number of times read queue was full causing retry
system.physmem.numWrRetry                           0                       # Number of times write queue was full causing retry
system.physmem.totGap                    5192526169500                       # Total gap between requests
system.physmem.readPktSize::0                       0                       # Read request sizes (log2)
system.physmem.readPktSize::1                       0                       # Read request sizes (log2)
system.physmem.readPktSize::2                       0                       # Read request sizes (log2)
system.physmem.readPktSize::3                       0                       # Read request sizes (log2)
system.physmem.readPktSize::4                       0                       # Read request sizes (log2)
system.physmem.readPktSize::5                       0                       # Read request sizes (log2)
system.physmem.readPktSize::6                  155454                       # Read request sizes (log2)
system.physmem.writePktSize::0                      0                       # Write request sizes (log2)
system.physmem.writePktSize::1                      0                       # Write request sizes (log2)
system.physmem.writePktSize::2                      0                       # Write request sizes (log2)
system.physmem.writePktSize::3                      0                       # Write request sizes (log2)
system.physmem.writePktSize::4                      0                       # Write request sizes (log2)
system.physmem.writePktSize::5                      0                       # Write request sizes (log2)
system.physmem.writePktSize::6                 127005                       # Write request sizes (log2)
system.physmem.rdQLenPdf::0                    151750                       # What read queue length does an incoming req see
system.physmem.rdQLenPdf::1                      3023                       # What read queue length does an incoming req see
system.physmem.rdQLenPdf::2                        59                       # What read queue length does an incoming req see
system.physmem.rdQLenPdf::3                        54                       # What read queue length does an incoming req see
system.physmem.rdQLenPdf::4                        34                       # What read queue length does an incoming req see
system.physmem.rdQLenPdf::5                        39                       # What read queue length does an incoming req see
system.physmem.rdQLenPdf::6                        35                       # What read queue length does an incoming req see
system.physmem.rdQLenPdf::7                        32                       # What read queue length does an incoming req see
system.physmem.rdQLenPdf::8                        28                       # What read queue length does an incoming req see
system.physmem.rdQLenPdf::9                        29                       # What read queue length does an incoming req see
system.physmem.rdQLenPdf::10                       29                       # What read queue length does an incoming req see
system.physmem.rdQLenPdf::11                       27                       # What read queue length does an incoming req see
system.physmem.rdQLenPdf::12                       25                       # What read queue length does an incoming req see
system.physmem.rdQLenPdf::13                       25                       # What read queue length does an incoming req see
system.physmem.rdQLenPdf::14                        7                       # What read queue length does an incoming req see
system.physmem.rdQLenPdf::15                        2                       # What read queue length does an incoming req see
system.physmem.rdQLenPdf::16                        2                       # What read queue length does an incoming req see
system.physmem.rdQLenPdf::17                        2                       # What read queue length does an incoming req see
system.physmem.rdQLenPdf::18                        0                       # What read queue length does an incoming req see
system.physmem.rdQLenPdf::19                        0                       # What read queue length does an incoming req see
system.physmem.rdQLenPdf::20                        0                       # What read queue length does an incoming req see
system.physmem.rdQLenPdf::21                        0                       # What read queue length does an incoming req see
system.physmem.rdQLenPdf::22                        0                       # What read queue length does an incoming req see
system.physmem.rdQLenPdf::23                        0                       # What read queue length does an incoming req see
system.physmem.rdQLenPdf::24                        0                       # What read queue length does an incoming req see
system.physmem.rdQLenPdf::25                        0                       # What read queue length does an incoming req see
system.physmem.rdQLenPdf::26                        0                       # What read queue length does an incoming req see
system.physmem.rdQLenPdf::27                        0                       # What read queue length does an incoming req see
system.physmem.rdQLenPdf::28                        0                       # What read queue length does an incoming req see
system.physmem.rdQLenPdf::29                        0                       # What read queue length does an incoming req see
system.physmem.rdQLenPdf::30                        0                       # What read queue length does an incoming req see
system.physmem.rdQLenPdf::31                        0                       # What read queue length does an incoming req see
system.physmem.wrQLenPdf::0                         1                       # What write queue length does an incoming req see
system.physmem.wrQLenPdf::1                         1                       # What write queue length does an incoming req see
system.physmem.wrQLenPdf::2                         1                       # What write queue length does an incoming req see
system.physmem.wrQLenPdf::3                         1                       # What write queue length does an incoming req see
system.physmem.wrQLenPdf::4                         1                       # What write queue length does an incoming req see
system.physmem.wrQLenPdf::5                         1                       # What write queue length does an incoming req see
system.physmem.wrQLenPdf::6                         1                       # What write queue length does an incoming req see
system.physmem.wrQLenPdf::7                         1                       # What write queue length does an incoming req see
system.physmem.wrQLenPdf::8                         1                       # What write queue length does an incoming req see
system.physmem.wrQLenPdf::9                         1                       # What write queue length does an incoming req see
system.physmem.wrQLenPdf::10                        1                       # What write queue length does an incoming req see
system.physmem.wrQLenPdf::11                        1                       # What write queue length does an incoming req see
system.physmem.wrQLenPdf::12                        1                       # What write queue length does an incoming req see
system.physmem.wrQLenPdf::13                        1                       # What write queue length does an incoming req see
system.physmem.wrQLenPdf::14                        1                       # What write queue length does an incoming req see
system.physmem.wrQLenPdf::15                     2439                       # What write queue length does an incoming req see
system.physmem.wrQLenPdf::16                     3242                       # What write queue length does an incoming req see
system.physmem.wrQLenPdf::17                     6145                       # What write queue length does an incoming req see
system.physmem.wrQLenPdf::18                     6383                       # What write queue length does an incoming req see
system.physmem.wrQLenPdf::19                     6406                       # What write queue length does an incoming req see
system.physmem.wrQLenPdf::20                     7175                       # What write queue length does an incoming req see
system.physmem.wrQLenPdf::21                     7465                       # What write queue length does an incoming req see
system.physmem.wrQLenPdf::22                     8169                       # What write queue length does an incoming req see
system.physmem.wrQLenPdf::23                     8822                       # What write queue length does an incoming req see
system.physmem.wrQLenPdf::24                     9909                       # What write queue length does an incoming req see
system.physmem.wrQLenPdf::25                     9129                       # What write queue length does an incoming req see
system.physmem.wrQLenPdf::26                     8509                       # What write queue length does an incoming req see
system.physmem.wrQLenPdf::27                     7675                       # What write queue length does an incoming req see
system.physmem.wrQLenPdf::28                     7337                       # What write queue length does an incoming req see
system.physmem.wrQLenPdf::29                     6397                       # What write queue length does an incoming req see
system.physmem.wrQLenPdf::30                     6159                       # What write queue length does an incoming req see
system.physmem.wrQLenPdf::31                     6188                       # What write queue length does an incoming req see
system.physmem.wrQLenPdf::32                     6092                       # What write queue length does an incoming req see
system.physmem.wrQLenPdf::33                      206                       # What write queue length does an incoming req see
system.physmem.wrQLenPdf::34                      180                       # What write queue length does an incoming req see
system.physmem.wrQLenPdf::35                      188                       # What write queue length does an incoming req see
system.physmem.wrQLenPdf::36                      164                       # What write queue length does an incoming req see
system.physmem.wrQLenPdf::37                      176                       # What write queue length does an incoming req see
system.physmem.wrQLenPdf::38                      179                       # What write queue length does an incoming req see
system.physmem.wrQLenPdf::39                      203                       # What write queue length does an incoming req see
system.physmem.wrQLenPdf::40                      191                       # What write queue length does an incoming req see
system.physmem.wrQLenPdf::41                      183                       # What write queue length does an incoming req see
system.physmem.wrQLenPdf::42                      179                       # What write queue length does an incoming req see
system.physmem.wrQLenPdf::43                      171                       # What write queue length does an incoming req see
system.physmem.wrQLenPdf::44                      181                       # What write queue length does an incoming req see
system.physmem.wrQLenPdf::45                      170                       # What write queue length does an incoming req see
system.physmem.wrQLenPdf::46                      148                       # What write queue length does an incoming req see
system.physmem.wrQLenPdf::47                      146                       # What write queue length does an incoming req see
system.physmem.wrQLenPdf::48                      140                       # What write queue length does an incoming req see
system.physmem.wrQLenPdf::49                      110                       # What write queue length does an incoming req see
system.physmem.wrQLenPdf::50                       88                       # What write queue length does an incoming req see
system.physmem.wrQLenPdf::51                       62                       # What write queue length does an incoming req see
system.physmem.wrQLenPdf::52                       55                       # What write queue length does an incoming req see
system.physmem.wrQLenPdf::53                       43                       # What write queue length does an incoming req see
system.physmem.wrQLenPdf::54                       37                       # What write queue length does an incoming req see
system.physmem.wrQLenPdf::55                       30                       # What write queue length does an incoming req see
system.physmem.wrQLenPdf::56                       31                       # What write queue length does an incoming req see
system.physmem.wrQLenPdf::57                       28                       # What write queue length does an incoming req see
system.physmem.wrQLenPdf::58                       21                       # What write queue length does an incoming req see
system.physmem.wrQLenPdf::59                       14                       # What write queue length does an incoming req see
system.physmem.wrQLenPdf::60                        9                       # What write queue length does an incoming req see
system.physmem.wrQLenPdf::61                        8                       # What write queue length does an incoming req see
system.physmem.wrQLenPdf::62                        6                       # What write queue length does an incoming req see
system.physmem.wrQLenPdf::63                        2                       # What write queue length does an incoming req see
system.physmem.bytesPerActivate::samples        56259                       # Bytes accessed per row activation
system.physmem.bytesPerActivate::mean      321.007910                       # Bytes accessed per row activation
system.physmem.bytesPerActivate::gmean     189.347718                       # Bytes accessed per row activation
system.physmem.bytesPerActivate::stdev     335.337897                       # Bytes accessed per row activation
system.physmem.bytesPerActivate::0-127          20082     35.70%     35.70% # Bytes accessed per row activation
system.physmem.bytesPerActivate::128-255        13652     24.27%     59.96% # Bytes accessed per row activation
system.physmem.bytesPerActivate::256-383         5681     10.10%     70.06% # Bytes accessed per row activation
system.physmem.bytesPerActivate::384-511         3443      6.12%     76.18% # Bytes accessed per row activation
system.physmem.bytesPerActivate::512-639         2317      4.12%     80.30% # Bytes accessed per row activation
system.physmem.bytesPerActivate::640-767         1632      2.90%     83.20% # Bytes accessed per row activation
system.physmem.bytesPerActivate::768-895         1101      1.96%     85.16% # Bytes accessed per row activation
system.physmem.bytesPerActivate::896-1023         1008      1.79%     86.95% # Bytes accessed per row activation
system.physmem.bytesPerActivate::1024-1151         7343     13.05%    100.00% # Bytes accessed per row activation
system.physmem.bytesPerActivate::total          56259                       # Bytes accessed per row activation
system.physmem.rdPerTurnAround::samples          5896                       # Reads before turning the bus around for writes
system.physmem.rdPerTurnAround::mean        26.315638                       # Reads before turning the bus around for writes
system.physmem.rdPerTurnAround::stdev      622.349689                       # Reads before turning the bus around for writes
system.physmem.rdPerTurnAround::0-2047           5895     99.98%     99.98% # Reads before turning the bus around for writes
system.physmem.rdPerTurnAround::47104-49151            1      0.02%    100.00% # Reads before turning the bus around for writes
system.physmem.rdPerTurnAround::total            5896                       # Reads before turning the bus around for writes
system.physmem.wrPerTurnAround::samples          5896                       # Writes before turning the bus around for reads
system.physmem.wrPerTurnAround::mean        21.536635                       # Writes before turning the bus around for reads
system.physmem.wrPerTurnAround::gmean       19.431893                       # Writes before turning the bus around for reads
system.physmem.wrPerTurnAround::stdev       14.049302                       # Writes before turning the bus around for reads
system.physmem.wrPerTurnAround::16-19            4860     82.43%     82.43% # Writes before turning the bus around for reads
system.physmem.wrPerTurnAround::20-23              44      0.75%     83.18% # Writes before turning the bus around for reads
system.physmem.wrPerTurnAround::24-27              38      0.64%     83.82% # Writes before turning the bus around for reads
system.physmem.wrPerTurnAround::28-31             287      4.87%     88.69% # Writes before turning the bus around for reads
system.physmem.wrPerTurnAround::32-35             272      4.61%     93.30% # Writes before turning the bus around for reads
system.physmem.wrPerTurnAround::36-39              20      0.34%     93.64% # Writes before turning the bus around for reads
system.physmem.wrPerTurnAround::40-43              25      0.42%     94.06% # Writes before turning the bus around for reads
system.physmem.wrPerTurnAround::44-47              11      0.19%     94.25% # Writes before turning the bus around for reads
system.physmem.wrPerTurnAround::48-51              27      0.46%     94.71% # Writes before turning the bus around for reads
system.physmem.wrPerTurnAround::52-55               4      0.07%     94.78% # Writes before turning the bus around for reads
system.physmem.wrPerTurnAround::56-59               3      0.05%     94.83% # Writes before turning the bus around for reads
system.physmem.wrPerTurnAround::60-63               1      0.02%     94.84% # Writes before turning the bus around for reads
system.physmem.wrPerTurnAround::64-67             223      3.78%     98.63% # Writes before turning the bus around for reads
system.physmem.wrPerTurnAround::68-71               4      0.07%     98.69% # Writes before turning the bus around for reads
system.physmem.wrPerTurnAround::72-75               6      0.10%     98.80% # Writes before turning the bus around for reads
system.physmem.wrPerTurnAround::76-79               3      0.05%     98.85% # Writes before turning the bus around for reads
system.physmem.wrPerTurnAround::80-83              20      0.34%     99.19% # Writes before turning the bus around for reads
system.physmem.wrPerTurnAround::84-87               1      0.02%     99.20% # Writes before turning the bus around for reads
system.physmem.wrPerTurnAround::92-95               1      0.02%     99.22% # Writes before turning the bus around for reads
system.physmem.wrPerTurnAround::96-99              10      0.17%     99.39% # Writes before turning the bus around for reads
system.physmem.wrPerTurnAround::100-103             2      0.03%     99.42% # Writes before turning the bus around for reads
system.physmem.wrPerTurnAround::104-107             2      0.03%     99.46% # Writes before turning the bus around for reads
system.physmem.wrPerTurnAround::108-111             2      0.03%     99.49% # Writes before turning the bus around for reads
system.physmem.wrPerTurnAround::112-115             8      0.14%     99.63% # Writes before turning the bus around for reads
system.physmem.wrPerTurnAround::116-119             2      0.03%     99.66% # Writes before turning the bus around for reads
system.physmem.wrPerTurnAround::120-123             4      0.07%     99.73% # Writes before turning the bus around for reads
system.physmem.wrPerTurnAround::128-131            13      0.22%     99.95% # Writes before turning the bus around for reads
system.physmem.wrPerTurnAround::132-135             1      0.02%     99.97% # Writes before turning the bus around for reads
system.physmem.wrPerTurnAround::140-143             2      0.03%    100.00% # Writes before turning the bus around for reads
system.physmem.wrPerTurnAround::total            5896                       # Writes before turning the bus around for reads
system.physmem.totQLat                     1473683250                       # Total ticks spent queuing
system.physmem.totMemAccLat                4383720750                       # Total ticks spent from burst creation until serviced by the DRAM
system.physmem.totBusLat                    776010000                       # Total ticks spent in databus transfers
system.physmem.avgQLat                        9495.26                       # Average queueing delay per DRAM burst
system.physmem.avgBusLat                      5000.00                       # Average bus latency per DRAM burst
system.physmem.avgMemAccLat                  28245.26                       # Average memory access latency per DRAM burst
system.physmem.avgRdBW                           1.91                       # Average DRAM read bandwidth in MiByte/s
system.physmem.avgWrBW                           1.57                       # Average achieved write bandwidth in MiByte/s
system.physmem.avgRdBWSys                        1.92                       # Average system read bandwidth in MiByte/s
system.physmem.avgWrBWSys                        1.57                       # Average system write bandwidth in MiByte/s
system.physmem.peakBW                        12800.00                       # Theoretical peak bandwidth in MiByte/s
system.physmem.busUtil                           0.03                       # Data bus utilization in percentage
system.physmem.busUtilRead                       0.01                       # Data bus utilization in percentage for reads
system.physmem.busUtilWrite                      0.01                       # Data bus utilization in percentage for writes
system.physmem.avgRdQLen                         1.00                       # Average read queue length when enqueuing
system.physmem.avgWrQLen                        22.52                       # Average write queue length when enqueuing
system.physmem.readRowHits                     127189                       # Number of row buffer hits during reads
system.physmem.writeRowHits                     98733                       # Number of row buffer hits during writes
system.physmem.readRowHitRate                   81.95                       # Row buffer hit rate for reads
system.physmem.writeRowHitRate                  77.74                       # Row buffer hit rate for writes
system.physmem.avgGap                     18383291.63                       # Average gap between requests
system.physmem.pageHitRate                      80.06                       # Row buffer hit rate, read and write combined
system.physmem.memoryStateTime::IDLE     4971157882750                       # Time in different power states
system.physmem.memoryStateTime::REF      173389840000                       # Time in different power states
system.physmem.memoryStateTime::PRE_PDN             0                       # Time in different power states
system.physmem.memoryStateTime::ACT       47978395250                       # Time in different power states
system.physmem.memoryStateTime::ACT_PDN             0                       # Time in different power states
system.membus.throughput                      3808612                       # Throughput (bytes/s)
system.membus.trans_dist::ReadReq              623901                       # Transaction distribution
system.membus.trans_dist::ReadResp             623901                       # Transaction distribution
system.membus.trans_dist::WriteReq              13773                       # Transaction distribution
system.membus.trans_dist::WriteResp             13773                       # Transaction distribution
system.membus.trans_dist::Writeback             80285                       # Transaction distribution
system.membus.trans_dist::WriteInvalidateReq        46720                       # Transaction distribution
system.membus.trans_dist::WriteInvalidateResp        46720                       # Transaction distribution
system.membus.trans_dist::UpgradeReq             2146                       # Transaction distribution
system.membus.trans_dist::UpgradeResp            1602                       # Transaction distribution
system.membus.trans_dist::ReadExReq            113400                       # Transaction distribution
system.membus.trans_dist::ReadExResp           113400                       # Transaction distribution
system.membus.trans_dist::MessageReq             1654                       # Transaction distribution
system.membus.trans_dist::MessageResp            1654                       # Transaction distribution
system.membus.pkt_count_system.apicbridge.master::system.cpu.interrupts.int_slave         3308                       # Packet count per connected master and slave (bytes)
system.membus.pkt_count_system.apicbridge.master::total         3308                       # Packet count per connected master and slave (bytes)
system.membus.pkt_count_system.cpu.l2cache.mem_side::system.bridge.slave       480328                       # Packet count per connected master and slave (bytes)
system.membus.pkt_count_system.cpu.l2cache.mem_side::system.cpu.interrupts.pio       710110                       # Packet count per connected master and slave (bytes)
system.membus.pkt_count_system.cpu.l2cache.mem_side::system.physmem.port       394055                       # Packet count per connected master and slave (bytes)
system.membus.pkt_count_system.cpu.l2cache.mem_side::total      1584493                       # Packet count per connected master and slave (bytes)
system.membus.pkt_count_system.iocache.mem_side::system.physmem.port        94727                       # Packet count per connected master and slave (bytes)
system.membus.pkt_count_system.iocache.mem_side::total        94727                       # Packet count per connected master and slave (bytes)
system.membus.pkt_count::total                1682528                       # Packet count per connected master and slave (bytes)
system.membus.tot_pkt_size_system.apicbridge.master::system.cpu.interrupts.int_slave         6616                       # Cumulative packet size per connected master and slave (bytes)
system.membus.tot_pkt_size_system.apicbridge.master::total         6616                       # Cumulative packet size per connected master and slave (bytes)
system.membus.tot_pkt_size_system.cpu.l2cache.mem_side::system.bridge.slave       246444                       # Cumulative packet size per connected master and slave (bytes)
system.membus.tot_pkt_size_system.cpu.l2cache.mem_side::system.cpu.interrupts.pio      1420217                       # Cumulative packet size per connected master and slave (bytes)
system.membus.tot_pkt_size_system.cpu.l2cache.mem_side::system.physmem.port     15058944                       # Cumulative packet size per connected master and slave (bytes)
system.membus.tot_pkt_size_system.cpu.l2cache.mem_side::total     16725605                       # Cumulative packet size per connected master and slave (bytes)
system.membus.tot_pkt_size_system.iocache.mem_side::system.physmem.port      3018432                       # Cumulative packet size per connected master and slave (bytes)
system.membus.tot_pkt_size_system.iocache.mem_side::total      3018432                       # Cumulative packet size per connected master and slave (bytes)
system.membus.tot_pkt_size::total            19750653                       # Cumulative packet size per connected master and slave (bytes)
system.membus.data_through_bus               19750653                       # Total data (bytes)
system.membus.snoop_data_through_bus            25664                       # Total snoop data (bytes)
system.membus.reqLayer0.occupancy           256795500                       # Layer occupancy (ticks)
system.membus.reqLayer0.utilization               0.0                       # Layer utilization (%)
system.membus.reqLayer1.occupancy           359321500                       # Layer occupancy (ticks)
system.membus.reqLayer1.utilization               0.0                       # Layer utilization (%)
system.membus.reqLayer2.occupancy             3308000                       # Layer occupancy (ticks)
system.membus.reqLayer2.utilization               0.0                       # Layer utilization (%)
system.membus.reqLayer3.occupancy          1309717000                       # Layer occupancy (ticks)
system.membus.reqLayer3.utilization               0.0                       # Layer utilization (%)
system.membus.respLayer0.occupancy            1654000                       # Layer occupancy (ticks)
system.membus.respLayer0.utilization              0.0                       # Layer utilization (%)
system.membus.respLayer2.occupancy         2621518398                       # Layer occupancy (ticks)
system.membus.respLayer2.utilization              0.1                       # Layer utilization (%)
system.membus.respLayer4.occupancy           54330498                       # Layer occupancy (ticks)
system.membus.respLayer4.utilization              0.0                       # Layer utilization (%)
system.iocache.tags.replacements                47509                       # number of replacements
system.iocache.tags.tagsinuse                0.112613                       # Cycle average of tags in use
system.iocache.tags.total_refs                      0                       # Total number of references to valid blocks.
system.iocache.tags.sampled_refs                47525                       # Sample count of references to valid blocks.
system.iocache.tags.avg_refs                        0                       # Average number of references to valid blocks.
system.iocache.tags.warmup_cycle         5045777659000                       # Cycle when the warmup percentage was hit.
system.iocache.tags.occ_blocks::pc.south_bridge.ide     0.112613                       # Average occupied blocks per requestor
system.iocache.tags.occ_percent::pc.south_bridge.ide     0.007038                       # Average percentage of cache occupancy
system.iocache.tags.occ_percent::total       0.007038                       # Average percentage of cache occupancy
system.iocache.tags.occ_task_id_blocks::1023           16                       # Occupied blocks per task id
system.iocache.tags.age_task_id_blocks_1023::2           16                       # Occupied blocks per task id
system.iocache.tags.occ_task_id_percent::1023            1                       # Percentage of cache occupancy per task id
system.iocache.tags.tag_accesses               428076                       # Number of tag accesses
system.iocache.tags.data_accesses              428076                       # Number of data accesses
system.iocache.WriteInvalidateReq_hits::pc.south_bridge.ide        46720                       # number of WriteInvalidateReq hits
system.iocache.WriteInvalidateReq_hits::total        46720                       # number of WriteInvalidateReq hits
system.iocache.ReadReq_misses::pc.south_bridge.ide          844                       # number of ReadReq misses
system.iocache.ReadReq_misses::total              844                       # number of ReadReq misses
system.iocache.demand_misses::pc.south_bridge.ide          844                       # number of demand (read+write) misses
system.iocache.demand_misses::total               844                       # number of demand (read+write) misses
system.iocache.overall_misses::pc.south_bridge.ide          844                       # number of overall misses
system.iocache.overall_misses::total              844                       # number of overall misses
system.iocache.ReadReq_miss_latency::pc.south_bridge.ide    141199186                       # number of ReadReq miss cycles
system.iocache.ReadReq_miss_latency::total    141199186                       # number of ReadReq miss cycles
system.iocache.demand_miss_latency::pc.south_bridge.ide    141199186                       # number of demand (read+write) miss cycles
system.iocache.demand_miss_latency::total    141199186                       # number of demand (read+write) miss cycles
system.iocache.overall_miss_latency::pc.south_bridge.ide    141199186                       # number of overall miss cycles
system.iocache.overall_miss_latency::total    141199186                       # number of overall miss cycles
system.iocache.ReadReq_accesses::pc.south_bridge.ide          844                       # number of ReadReq accesses(hits+misses)
system.iocache.ReadReq_accesses::total            844                       # number of ReadReq accesses(hits+misses)
system.iocache.WriteInvalidateReq_accesses::pc.south_bridge.ide        46720                       # number of WriteInvalidateReq accesses(hits+misses)
system.iocache.WriteInvalidateReq_accesses::total        46720                       # number of WriteInvalidateReq accesses(hits+misses)
system.iocache.demand_accesses::pc.south_bridge.ide          844                       # number of demand (read+write) accesses
system.iocache.demand_accesses::total             844                       # number of demand (read+write) accesses
system.iocache.overall_accesses::pc.south_bridge.ide          844                       # number of overall (read+write) accesses
system.iocache.overall_accesses::total            844                       # number of overall (read+write) accesses
system.iocache.ReadReq_miss_rate::pc.south_bridge.ide            1                       # miss rate for ReadReq accesses
system.iocache.ReadReq_miss_rate::total             1                       # miss rate for ReadReq accesses
system.iocache.demand_miss_rate::pc.south_bridge.ide            1                       # miss rate for demand accesses
system.iocache.demand_miss_rate::total              1                       # miss rate for demand accesses
system.iocache.overall_miss_rate::pc.south_bridge.ide            1                       # miss rate for overall accesses
system.iocache.overall_miss_rate::total             1                       # miss rate for overall accesses
system.iocache.ReadReq_avg_miss_latency::pc.south_bridge.ide 167297.613744                       # average ReadReq miss latency
system.iocache.ReadReq_avg_miss_latency::total 167297.613744                       # average ReadReq miss latency
system.iocache.demand_avg_miss_latency::pc.south_bridge.ide 167297.613744                       # average overall miss latency
system.iocache.demand_avg_miss_latency::total 167297.613744                       # average overall miss latency
system.iocache.overall_avg_miss_latency::pc.south_bridge.ide 167297.613744                       # average overall miss latency
system.iocache.overall_avg_miss_latency::total 167297.613744                       # average overall miss latency
system.iocache.blocked_cycles::no_mshrs           471                       # number of cycles access was blocked
system.iocache.blocked_cycles::no_targets            0                       # number of cycles access was blocked
system.iocache.blocked::no_mshrs                   39                       # number of cycles access was blocked
system.iocache.blocked::no_targets                  0                       # number of cycles access was blocked
system.iocache.avg_blocked_cycles::no_mshrs    12.076923                       # average number of cycles each access was blocked
system.iocache.avg_blocked_cycles::no_targets          nan                       # average number of cycles each access was blocked
system.iocache.fast_writes                      46720                       # number of fast writes performed
system.iocache.cache_copies                         0                       # number of cache copies performed
system.iocache.ReadReq_mshr_misses::pc.south_bridge.ide          844                       # number of ReadReq MSHR misses
system.iocache.ReadReq_mshr_misses::total          844                       # number of ReadReq MSHR misses
system.iocache.WriteInvalidateReq_mshr_misses::pc.south_bridge.ide        46720                       # number of WriteInvalidateReq MSHR misses
system.iocache.WriteInvalidateReq_mshr_misses::total        46720                       # number of WriteInvalidateReq MSHR misses
system.iocache.demand_mshr_misses::pc.south_bridge.ide          844                       # number of demand (read+write) MSHR misses
system.iocache.demand_mshr_misses::total          844                       # number of demand (read+write) MSHR misses
system.iocache.overall_mshr_misses::pc.south_bridge.ide          844                       # number of overall MSHR misses
system.iocache.overall_mshr_misses::total          844                       # number of overall MSHR misses
system.iocache.ReadReq_mshr_miss_latency::pc.south_bridge.ide     97286186                       # number of ReadReq MSHR miss cycles
system.iocache.ReadReq_mshr_miss_latency::total     97286186                       # number of ReadReq MSHR miss cycles
system.iocache.WriteInvalidateReq_mshr_miss_latency::pc.south_bridge.ide   2834928162                       # number of WriteInvalidateReq MSHR miss cycles
system.iocache.WriteInvalidateReq_mshr_miss_latency::total   2834928162                       # number of WriteInvalidateReq MSHR miss cycles
system.iocache.demand_mshr_miss_latency::pc.south_bridge.ide     97286186                       # number of demand (read+write) MSHR miss cycles
system.iocache.demand_mshr_miss_latency::total     97286186                       # number of demand (read+write) MSHR miss cycles
system.iocache.overall_mshr_miss_latency::pc.south_bridge.ide     97286186                       # number of overall MSHR miss cycles
system.iocache.overall_mshr_miss_latency::total     97286186                       # number of overall MSHR miss cycles
system.iocache.ReadReq_mshr_miss_rate::pc.south_bridge.ide            1                       # mshr miss rate for ReadReq accesses
system.iocache.ReadReq_mshr_miss_rate::total            1                       # mshr miss rate for ReadReq accesses
system.iocache.WriteInvalidateReq_mshr_miss_rate::pc.south_bridge.ide            1                       # mshr miss rate for WriteInvalidateReq accesses
system.iocache.WriteInvalidateReq_mshr_miss_rate::total            1                       # mshr miss rate for WriteInvalidateReq accesses
system.iocache.demand_mshr_miss_rate::pc.south_bridge.ide            1                       # mshr miss rate for demand accesses
system.iocache.demand_mshr_miss_rate::total            1                       # mshr miss rate for demand accesses
system.iocache.overall_mshr_miss_rate::pc.south_bridge.ide            1                       # mshr miss rate for overall accesses
system.iocache.overall_mshr_miss_rate::total            1                       # mshr miss rate for overall accesses
system.iocache.ReadReq_avg_mshr_miss_latency::pc.south_bridge.ide 115267.992891                       # average ReadReq mshr miss latency
system.iocache.ReadReq_avg_mshr_miss_latency::total 115267.992891                       # average ReadReq mshr miss latency
system.iocache.WriteInvalidateReq_avg_mshr_miss_latency::pc.south_bridge.ide 60679.113057                       # average WriteInvalidateReq mshr miss latency
system.iocache.WriteInvalidateReq_avg_mshr_miss_latency::total 60679.113057                       # average WriteInvalidateReq mshr miss latency
system.iocache.demand_avg_mshr_miss_latency::pc.south_bridge.ide 115267.992891                       # average overall mshr miss latency
system.iocache.demand_avg_mshr_miss_latency::total 115267.992891                       # average overall mshr miss latency
system.iocache.overall_avg_mshr_miss_latency::pc.south_bridge.ide 115267.992891                       # average overall mshr miss latency
system.iocache.overall_avg_mshr_miss_latency::total 115267.992891                       # average overall mshr miss latency
system.iocache.no_allocate_misses                   0                       # Number of misses that were no-allocate
system.pc.south_bridge.ide.disks0.dma_read_full_pages            0                       # Number of full page size DMA reads (not PRD).
system.pc.south_bridge.ide.disks0.dma_read_bytes        34816                       # Number of bytes transfered via DMA reads (not PRD).
system.pc.south_bridge.ide.disks0.dma_read_txs           31                       # Number of DMA read transactions (not PRD).
system.pc.south_bridge.ide.disks0.dma_write_full_pages          693                       # Number of full page size DMA writes.
system.pc.south_bridge.ide.disks0.dma_write_bytes      2985984                       # Number of bytes transfered via DMA writes.
system.pc.south_bridge.ide.disks0.dma_write_txs          812                       # Number of DMA write transactions.
system.pc.south_bridge.ide.disks1.dma_read_full_pages            0                       # Number of full page size DMA reads (not PRD).
system.pc.south_bridge.ide.disks1.dma_read_bytes            0                       # Number of bytes transfered via DMA reads (not PRD).
system.pc.south_bridge.ide.disks1.dma_read_txs            0                       # Number of DMA read transactions (not PRD).
system.pc.south_bridge.ide.disks1.dma_write_full_pages            1                       # Number of full page size DMA writes.
system.pc.south_bridge.ide.disks1.dma_write_bytes         4096                       # Number of bytes transfered via DMA writes.
system.pc.south_bridge.ide.disks1.dma_write_txs            1                       # Number of DMA write transactions.
system.iobus.throughput                        631746                       # Throughput (bytes/s)
system.iobus.trans_dist::ReadReq               230149                       # Transaction distribution
system.iobus.trans_dist::ReadResp              230149                       # Transaction distribution
system.iobus.trans_dist::WriteReq               57579                       # Transaction distribution
system.iobus.trans_dist::WriteResp              57579                       # Transaction distribution
system.iobus.trans_dist::MessageReq              1654                       # Transaction distribution
system.iobus.trans_dist::MessageResp             1654                       # Transaction distribution
system.iobus.pkt_count_system.bridge.master::system.pc.south_bridge.cmos.pio           44                       # Packet count per connected master and slave (bytes)
system.iobus.pkt_count_system.bridge.master::system.pc.south_bridge.dma1.pio            6                       # Packet count per connected master and slave (bytes)
system.iobus.pkt_count_system.bridge.master::system.pc.south_bridge.ide.pio        11088                       # Packet count per connected master and slave (bytes)
system.iobus.pkt_count_system.bridge.master::system.pc.south_bridge.ide-pciconf          180                       # Packet count per connected master and slave (bytes)
system.iobus.pkt_count_system.bridge.master::system.pc.south_bridge.keyboard.pio         1364                       # Packet count per connected master and slave (bytes)
system.iobus.pkt_count_system.bridge.master::system.pc.south_bridge.pic1.pio           86                       # Packet count per connected master and slave (bytes)
system.iobus.pkt_count_system.bridge.master::system.pc.south_bridge.pic2.pio           54                       # Packet count per connected master and slave (bytes)
system.iobus.pkt_count_system.bridge.master::system.pc.south_bridge.pit.pio           30                       # Packet count per connected master and slave (bytes)
system.iobus.pkt_count_system.bridge.master::system.pc.south_bridge.speaker.pio       436684                       # Packet count per connected master and slave (bytes)
system.iobus.pkt_count_system.bridge.master::system.pc.south_bridge.io_apic.pio         1210                       # Packet count per connected master and slave (bytes)
system.iobus.pkt_count_system.bridge.master::system.pc.i_dont_exist.pio          170                       # Packet count per connected master and slave (bytes)
system.iobus.pkt_count_system.bridge.master::system.pc.behind_pci.pio            2                       # Packet count per connected master and slave (bytes)
system.iobus.pkt_count_system.bridge.master::system.pc.com_1.pio        27236                       # Packet count per connected master and slave (bytes)
system.iobus.pkt_count_system.bridge.master::system.pc.fake_com_2.pio           12                       # Packet count per connected master and slave (bytes)
system.iobus.pkt_count_system.bridge.master::system.pc.fake_com_3.pio           12                       # Packet count per connected master and slave (bytes)
system.iobus.pkt_count_system.bridge.master::system.pc.fake_com_4.pio           12                       # Packet count per connected master and slave (bytes)
system.iobus.pkt_count_system.bridge.master::system.pc.fake_floppy.pio           10                       # Packet count per connected master and slave (bytes)
system.iobus.pkt_count_system.bridge.master::system.pc.pciconfig.pio         2128                       # Packet count per connected master and slave (bytes)
system.iobus.pkt_count_system.bridge.master::total       480328                       # Packet count per connected master and slave (bytes)
system.iobus.pkt_count_system.pc.south_bridge.ide.dma::system.iocache.cpu_side        95128                       # Packet count per connected master and slave (bytes)
system.iobus.pkt_count_system.pc.south_bridge.ide.dma::total        95128                       # Packet count per connected master and slave (bytes)
system.iobus.pkt_count_system.pc.south_bridge.io_apic.int_master::system.apicbridge.slave         3308                       # Packet count per connected master and slave (bytes)
system.iobus.pkt_count_system.pc.south_bridge.io_apic.int_master::total         3308                       # Packet count per connected master and slave (bytes)
system.iobus.pkt_count::total                  578764                       # Packet count per connected master and slave (bytes)
system.iobus.tot_pkt_size_system.bridge.master::system.pc.south_bridge.cmos.pio           22                       # Cumulative packet size per connected master and slave (bytes)
system.iobus.tot_pkt_size_system.bridge.master::system.pc.south_bridge.dma1.pio            3                       # Cumulative packet size per connected master and slave (bytes)
system.iobus.tot_pkt_size_system.bridge.master::system.pc.south_bridge.ide.pio         6686                       # Cumulative packet size per connected master and slave (bytes)
system.iobus.tot_pkt_size_system.bridge.master::system.pc.south_bridge.ide-pciconf          221                       # Cumulative packet size per connected master and slave (bytes)
system.iobus.tot_pkt_size_system.bridge.master::system.pc.south_bridge.keyboard.pio          682                       # Cumulative packet size per connected master and slave (bytes)
system.iobus.tot_pkt_size_system.bridge.master::system.pc.south_bridge.pic1.pio           43                       # Cumulative packet size per connected master and slave (bytes)
system.iobus.tot_pkt_size_system.bridge.master::system.pc.south_bridge.pic2.pio           27                       # Cumulative packet size per connected master and slave (bytes)
system.iobus.tot_pkt_size_system.bridge.master::system.pc.south_bridge.pit.pio           15                       # Cumulative packet size per connected master and slave (bytes)
system.iobus.tot_pkt_size_system.bridge.master::system.pc.south_bridge.speaker.pio       218342                       # Cumulative packet size per connected master and slave (bytes)
system.iobus.tot_pkt_size_system.bridge.master::system.pc.south_bridge.io_apic.pio         2420                       # Cumulative packet size per connected master and slave (bytes)
system.iobus.tot_pkt_size_system.bridge.master::system.pc.i_dont_exist.pio           85                       # Cumulative packet size per connected master and slave (bytes)
system.iobus.tot_pkt_size_system.bridge.master::system.pc.behind_pci.pio            1                       # Cumulative packet size per connected master and slave (bytes)
system.iobus.tot_pkt_size_system.bridge.master::system.pc.com_1.pio        13618                       # Cumulative packet size per connected master and slave (bytes)
system.iobus.tot_pkt_size_system.bridge.master::system.pc.fake_com_2.pio            6                       # Cumulative packet size per connected master and slave (bytes)
system.iobus.tot_pkt_size_system.bridge.master::system.pc.fake_com_3.pio            6                       # Cumulative packet size per connected master and slave (bytes)
system.iobus.tot_pkt_size_system.bridge.master::system.pc.fake_com_4.pio            6                       # Cumulative packet size per connected master and slave (bytes)
system.iobus.tot_pkt_size_system.bridge.master::system.pc.fake_floppy.pio            5                       # Cumulative packet size per connected master and slave (bytes)
system.iobus.tot_pkt_size_system.bridge.master::system.pc.pciconfig.pio         4256                       # Cumulative packet size per connected master and slave (bytes)
system.iobus.tot_pkt_size_system.bridge.master::total       246444                       # Cumulative packet size per connected master and slave (bytes)
system.iobus.tot_pkt_size_system.pc.south_bridge.ide.dma::system.iocache.cpu_side      3027296                       # Cumulative packet size per connected master and slave (bytes)
system.iobus.tot_pkt_size_system.pc.south_bridge.ide.dma::total      3027296                       # Cumulative packet size per connected master and slave (bytes)
system.iobus.tot_pkt_size_system.pc.south_bridge.io_apic.int_master::system.apicbridge.slave         6616                       # Cumulative packet size per connected master and slave (bytes)
system.iobus.tot_pkt_size_system.pc.south_bridge.io_apic.int_master::total         6616                       # Cumulative packet size per connected master and slave (bytes)
system.iobus.tot_pkt_size::total              3280356                       # Cumulative packet size per connected master and slave (bytes)
system.iobus.data_through_bus                 3280356                       # Total data (bytes)
system.iobus.reqLayer0.occupancy              3944816                       # Layer occupancy (ticks)
system.iobus.reqLayer0.utilization                0.0                       # Layer utilization (%)
system.iobus.reqLayer1.occupancy                34000                       # Layer occupancy (ticks)
system.iobus.reqLayer1.utilization                0.0                       # Layer utilization (%)
system.iobus.reqLayer2.occupancy                 6000                       # Layer occupancy (ticks)
system.iobus.reqLayer2.utilization                0.0                       # Layer utilization (%)
system.iobus.reqLayer3.occupancy              8813000                       # Layer occupancy (ticks)
system.iobus.reqLayer3.utilization                0.0                       # Layer utilization (%)
system.iobus.reqLayer4.occupancy               122000                       # Layer occupancy (ticks)
system.iobus.reqLayer4.utilization                0.0                       # Layer utilization (%)
system.iobus.reqLayer5.occupancy               891000                       # Layer occupancy (ticks)
system.iobus.reqLayer5.utilization                0.0                       # Layer utilization (%)
system.iobus.reqLayer6.occupancy                77000                       # Layer occupancy (ticks)
system.iobus.reqLayer6.utilization                0.0                       # Layer utilization (%)
system.iobus.reqLayer7.occupancy                50000                       # Layer occupancy (ticks)
system.iobus.reqLayer7.utilization                0.0                       # Layer utilization (%)
system.iobus.reqLayer8.occupancy                26000                       # Layer occupancy (ticks)
system.iobus.reqLayer8.utilization                0.0                       # Layer utilization (%)
system.iobus.reqLayer9.occupancy            218343000                       # Layer occupancy (ticks)
system.iobus.reqLayer9.utilization                0.0                       # Layer utilization (%)
system.iobus.reqLayer10.occupancy             1014000                       # Layer occupancy (ticks)
system.iobus.reqLayer10.utilization               0.0                       # Layer utilization (%)
system.iobus.reqLayer11.occupancy              170000                       # Layer occupancy (ticks)
system.iobus.reqLayer11.utilization               0.0                       # Layer utilization (%)
system.iobus.reqLayer12.occupancy                2000                       # Layer occupancy (ticks)
system.iobus.reqLayer12.utilization               0.0                       # Layer utilization (%)
system.iobus.reqLayer13.occupancy            20374000                       # Layer occupancy (ticks)
system.iobus.reqLayer13.utilization               0.0                       # Layer utilization (%)
system.iobus.reqLayer14.occupancy                9000                       # Layer occupancy (ticks)
system.iobus.reqLayer14.utilization               0.0                       # Layer utilization (%)
system.iobus.reqLayer15.occupancy                9000                       # Layer occupancy (ticks)
system.iobus.reqLayer15.utilization               0.0                       # Layer utilization (%)
system.iobus.reqLayer16.occupancy                9000                       # Layer occupancy (ticks)
system.iobus.reqLayer16.utilization               0.0                       # Layer utilization (%)
system.iobus.reqLayer17.occupancy               10000                       # Layer occupancy (ticks)
system.iobus.reqLayer17.utilization               0.0                       # Layer utilization (%)
system.iobus.reqLayer18.occupancy           421898846                       # Layer occupancy (ticks)
system.iobus.reqLayer18.utilization               0.0                       # Layer utilization (%)
system.iobus.reqLayer19.occupancy             1064000                       # Layer occupancy (ticks)
system.iobus.reqLayer19.utilization               0.0                       # Layer utilization (%)
system.iobus.respLayer0.occupancy           469469000                       # Layer occupancy (ticks)
system.iobus.respLayer0.utilization               0.0                       # Layer utilization (%)
system.iobus.respLayer1.occupancy            52228502                       # Layer occupancy (ticks)
system.iobus.respLayer1.utilization               0.0                       # Layer utilization (%)
system.iobus.respLayer2.occupancy             1654000                       # Layer occupancy (ticks)
system.iobus.respLayer2.utilization               0.0                       # Layer utilization (%)
system.cpu_clk_domain.clock                       500                       # Clock period in ticks
system.cpu.apic_clk_domain.clock                 8000                       # Clock period in ticks
system.cpu.numCycles                      10385052466                       # number of cpu cycles simulated
system.cpu.numWorkItemsStarted                      0                       # number of work items this cpu started
system.cpu.numWorkItemsCompleted                    0                       # number of work items this cpu completed
system.cpu.committedInsts                   128336778                       # Number of instructions committed
system.cpu.committedOps                     247387190                       # Number of ops (including micro ops) committed
system.cpu.num_int_alu_accesses             231979854                       # Number of integer alu accesses
system.cpu.num_fp_alu_accesses                      0                       # Number of float alu accesses
system.cpu.num_func_calls                     2299861                       # number of times a function call or return occured
system.cpu.num_conditional_control_insts     23168822                       # number of instructions that are conditional controls
system.cpu.num_int_insts                    231979854                       # number of integer instructions
system.cpu.num_fp_insts                             0                       # number of float instructions
system.cpu.num_int_register_reads           434516750                       # number of times the integer registers were read
system.cpu.num_int_register_writes          197854064                       # number of times the integer registers were written
system.cpu.num_fp_register_reads                    0                       # number of times the floating registers were read
system.cpu.num_fp_register_writes                   0                       # number of times the floating registers were written
system.cpu.num_cc_register_reads            132811657                       # number of times the CC registers were read
system.cpu.num_cc_register_writes            95534544                       # number of times the CC registers were written
system.cpu.num_mem_refs                      22246380                       # number of memory refs
system.cpu.num_load_insts                    13880618                       # Number of load instructions
system.cpu.num_store_insts                    8365762                       # Number of store instructions
system.cpu.num_idle_cycles               9788359567.998116                       # Number of idle cycles
system.cpu.num_busy_cycles               596692898.001885                       # Number of busy cycles
system.cpu.not_idle_fraction                 0.057457                       # Percentage of non-idle cycles
system.cpu.idle_fraction                     0.942543                       # Percentage of idle cycles
system.cpu.Branches                          26306776                       # Number of branches fetched
system.cpu.op_class::No_OpClass                174693      0.07%      0.07% # Class of executed instruction
system.cpu.op_class::IntAlu                 224704760     90.83%     90.90% # Class of executed instruction
system.cpu.op_class::IntMult                   139946      0.06%     90.96% # Class of executed instruction
system.cpu.op_class::IntDiv                    122983      0.05%     91.01% # Class of executed instruction
system.cpu.op_class::FloatAdd                       0      0.00%     91.01% # Class of executed instruction
system.cpu.op_class::FloatCmp                       0      0.00%     91.01% # Class of executed instruction
system.cpu.op_class::FloatCvt                       0      0.00%     91.01% # Class of executed instruction
system.cpu.op_class::FloatMult                      0      0.00%     91.01% # Class of executed instruction
system.cpu.op_class::FloatDiv                       0      0.00%     91.01% # Class of executed instruction
system.cpu.op_class::FloatSqrt                      0      0.00%     91.01% # Class of executed instruction
system.cpu.op_class::SimdAdd                        0      0.00%     91.01% # Class of executed instruction
system.cpu.op_class::SimdAddAcc                     0      0.00%     91.01% # Class of executed instruction
system.cpu.op_class::SimdAlu                        0      0.00%     91.01% # Class of executed instruction
system.cpu.op_class::SimdCmp                        0      0.00%     91.01% # Class of executed instruction
system.cpu.op_class::SimdCvt                        0      0.00%     91.01% # Class of executed instruction
system.cpu.op_class::SimdMisc                       0      0.00%     91.01% # Class of executed instruction
system.cpu.op_class::SimdMult                       0      0.00%     91.01% # Class of executed instruction
system.cpu.op_class::SimdMultAcc                    0      0.00%     91.01% # Class of executed instruction
system.cpu.op_class::SimdShift                      0      0.00%     91.01% # Class of executed instruction
system.cpu.op_class::SimdShiftAcc                   0      0.00%     91.01% # Class of executed instruction
system.cpu.op_class::SimdSqrt                       0      0.00%     91.01% # Class of executed instruction
system.cpu.op_class::SimdFloatAdd                   0      0.00%     91.01% # Class of executed instruction
system.cpu.op_class::SimdFloatAlu                   0      0.00%     91.01% # Class of executed instruction
system.cpu.op_class::SimdFloatCmp                   0      0.00%     91.01% # Class of executed instruction
system.cpu.op_class::SimdFloatCvt                   0      0.00%     91.01% # Class of executed instruction
system.cpu.op_class::SimdFloatDiv                   0      0.00%     91.01% # Class of executed instruction
system.cpu.op_class::SimdFloatMisc                  0      0.00%     91.01% # Class of executed instruction
system.cpu.op_class::SimdFloatMult                  0      0.00%     91.01% # Class of executed instruction
system.cpu.op_class::SimdFloatMultAcc               0      0.00%     91.01% # Class of executed instruction
system.cpu.op_class::SimdFloatSqrt                  0      0.00%     91.01% # Class of executed instruction
system.cpu.op_class::MemRead                 13880618      5.61%     96.62% # Class of executed instruction
system.cpu.op_class::MemWrite                 8365762      3.38%    100.00% # Class of executed instruction
system.cpu.op_class::IprAccess                      0      0.00%    100.00% # Class of executed instruction
system.cpu.op_class::InstPrefetch                   0      0.00%    100.00% # Class of executed instruction
system.cpu.op_class::total                  247388762                       # Class of executed instruction
system.cpu.kern.inst.arm                            0                       # number of arm instructions executed
system.cpu.kern.inst.quiesce                        0                       # number of quiesce instructions executed
system.cpu.icache.tags.replacements            794564                       # number of replacements
system.cpu.icache.tags.tagsinuse           510.353610                       # Cycle average of tags in use
system.cpu.icache.tags.total_refs           144580687                       # Total number of references to valid blocks.
system.cpu.icache.tags.sampled_refs            795076                       # Sample count of references to valid blocks.
system.cpu.icache.tags.avg_refs            181.845115                       # Average number of references to valid blocks.
system.cpu.icache.tags.warmup_cycle      161037642250                       # Cycle when the warmup percentage was hit.
system.cpu.icache.tags.occ_blocks::cpu.inst   510.353610                       # Average occupied blocks per requestor
system.cpu.icache.tags.occ_percent::cpu.inst     0.996784                       # Average percentage of cache occupancy
system.cpu.icache.tags.occ_percent::total     0.996784                       # Average percentage of cache occupancy
system.cpu.icache.tags.occ_task_id_blocks::1024          512                       # Occupied blocks per task id
system.cpu.icache.tags.age_task_id_blocks_1024::0           53                       # Occupied blocks per task id
system.cpu.icache.tags.age_task_id_blocks_1024::1          159                       # Occupied blocks per task id
system.cpu.icache.tags.age_task_id_blocks_1024::2          295                       # Occupied blocks per task id
system.cpu.icache.tags.age_task_id_blocks_1024::3            5                       # Occupied blocks per task id
system.cpu.icache.tags.occ_task_id_percent::1024            1                       # Percentage of cache occupancy per task id
system.cpu.icache.tags.tag_accesses         146170853                       # Number of tag accesses
system.cpu.icache.tags.data_accesses        146170853                       # Number of data accesses
system.cpu.icache.ReadReq_hits::cpu.inst    144580687                       # number of ReadReq hits
system.cpu.icache.ReadReq_hits::total       144580687                       # number of ReadReq hits
system.cpu.icache.demand_hits::cpu.inst     144580687                       # number of demand (read+write) hits
system.cpu.icache.demand_hits::total        144580687                       # number of demand (read+write) hits
system.cpu.icache.overall_hits::cpu.inst    144580687                       # number of overall hits
system.cpu.icache.overall_hits::total       144580687                       # number of overall hits
system.cpu.icache.ReadReq_misses::cpu.inst       795083                       # number of ReadReq misses
system.cpu.icache.ReadReq_misses::total        795083                       # number of ReadReq misses
system.cpu.icache.demand_misses::cpu.inst       795083                       # number of demand (read+write) misses
system.cpu.icache.demand_misses::total         795083                       # number of demand (read+write) misses
system.cpu.icache.overall_misses::cpu.inst       795083                       # number of overall misses
system.cpu.icache.overall_misses::total        795083                       # number of overall misses
system.cpu.icache.ReadReq_miss_latency::cpu.inst  11158319369                       # number of ReadReq miss cycles
system.cpu.icache.ReadReq_miss_latency::total  11158319369                       # number of ReadReq miss cycles
system.cpu.icache.demand_miss_latency::cpu.inst  11158319369                       # number of demand (read+write) miss cycles
system.cpu.icache.demand_miss_latency::total  11158319369                       # number of demand (read+write) miss cycles
system.cpu.icache.overall_miss_latency::cpu.inst  11158319369                       # number of overall miss cycles
system.cpu.icache.overall_miss_latency::total  11158319369                       # number of overall miss cycles
system.cpu.icache.ReadReq_accesses::cpu.inst    145375770                       # number of ReadReq accesses(hits+misses)
system.cpu.icache.ReadReq_accesses::total    145375770                       # number of ReadReq accesses(hits+misses)
system.cpu.icache.demand_accesses::cpu.inst    145375770                       # number of demand (read+write) accesses
system.cpu.icache.demand_accesses::total    145375770                       # number of demand (read+write) accesses
system.cpu.icache.overall_accesses::cpu.inst    145375770                       # number of overall (read+write) accesses
system.cpu.icache.overall_accesses::total    145375770                       # number of overall (read+write) accesses
system.cpu.icache.ReadReq_miss_rate::cpu.inst     0.005469                       # miss rate for ReadReq accesses
system.cpu.icache.ReadReq_miss_rate::total     0.005469                       # miss rate for ReadReq accesses
system.cpu.icache.demand_miss_rate::cpu.inst     0.005469                       # miss rate for demand accesses
system.cpu.icache.demand_miss_rate::total     0.005469                       # miss rate for demand accesses
system.cpu.icache.overall_miss_rate::cpu.inst     0.005469                       # miss rate for overall accesses
system.cpu.icache.overall_miss_rate::total     0.005469                       # miss rate for overall accesses
system.cpu.icache.ReadReq_avg_miss_latency::cpu.inst 14034.156647                       # average ReadReq miss latency
system.cpu.icache.ReadReq_avg_miss_latency::total 14034.156647                       # average ReadReq miss latency
system.cpu.icache.demand_avg_miss_latency::cpu.inst 14034.156647                       # average overall miss latency
system.cpu.icache.demand_avg_miss_latency::total 14034.156647                       # average overall miss latency
system.cpu.icache.overall_avg_miss_latency::cpu.inst 14034.156647                       # average overall miss latency
system.cpu.icache.overall_avg_miss_latency::total 14034.156647                       # average overall miss latency
system.cpu.icache.blocked_cycles::no_mshrs            0                       # number of cycles access was blocked
[...]
system.cpu.l2cache.ReadReq_accesses::cpu.dtb.walker         6367                       # number of ReadReq accesses(hits+misses)
system.cpu.l2cache.ReadReq_accesses::cpu.itb.walker         2883                       # number of ReadReq accesses(hits+misses)
system.cpu.l2cache.ReadReq_accesses::cpu.inst       795070                       # number of ReadReq accesses(hits+misses)
system.cpu.l2cache.ReadReq_accesses::cpu.data      1307427                       # number of ReadReq accesses(hits+misses)
system.cpu.l2cache.ReadReq_accesses::total      2111747                       # number of ReadReq accesses(hits+misses)
system.cpu.l2cache.Writeback_accesses::writebacks      1541433                       # number of Writeback accesses(hits+misses)
system.cpu.l2cache.Writeback_accesses::total      1541433                       # number of Writeback accesses(hits+misses)
system.cpu.l2cache.UpgradeReq_accesses::cpu.data         1639                       # number of UpgradeReq accesses(hits+misses)
system.cpu.l2cache.UpgradeReq_accesses::total         1639                       # number of UpgradeReq accesses(hits+misses)
system.cpu.l2cache.ReadExReq_accesses::cpu.data       313145                       # number of ReadExReq accesses(hits+misses)
system.cpu.l2cache.ReadExReq_accesses::total       313145                       # number of ReadExReq accesses(hits+misses)
system.cpu.l2cache.demand_accesses::cpu.dtb.walker         6367                       # number of demand (read+write) accesses
system.cpu.l2cache.demand_accesses::cpu.itb.walker         2883                       # number of demand (read+write) accesses
system.cpu.l2cache.demand_accesses::cpu.inst       795070                       # number of demand (read+write) accesses
system.cpu.l2cache.demand_accesses::cpu.data      1620572                       # number of demand (read+write) accesses
system.cpu.l2cache.demand_accesses::total      2424892                       # number of demand (read+write) accesses
system.cpu.l2cache.overall_accesses::cpu.dtb.walker         6367                       # number of overall (read+write) accesses
system.cpu.l2cache.overall_accesses::cpu.itb.walker         2883                       # number of overall (read+write) accesses
system.cpu.l2cache.overall_accesses::cpu.inst       795070                       # number of overall (read+write) accesses
system.cpu.l2cache.overall_accesses::cpu.data      1620572                       # number of overall (read+write) accesses
system.cpu.l2cache.overall_accesses::total      2424892                       # number of overall (read+write) accesses
system.cpu.l2cache.ReadReq_miss_rate::cpu.dtb.walker     0.000157                       # miss rate for ReadReq accesses
system.cpu.l2cache.ReadReq_miss_rate::cpu.itb.walker     0.001734                       # miss rate for ReadReq accesses
system.cpu.l2cache.ReadReq_miss_rate::cpu.inst     0.016304                       # miss rate for ReadReq accesses
system.cpu.l2cache.ReadReq_miss_rate::cpu.data     0.021907                       # miss rate for ReadReq accesses
system.cpu.l2cache.ReadReq_miss_rate::total     0.019705                       # miss rate for ReadReq accesses
system.cpu.l2cache.UpgradeReq_miss_rate::cpu.data     0.808420                       # miss rate for UpgradeReq accesses
system.cpu.l2cache.UpgradeReq_miss_rate::total     0.808420                       # miss rate for UpgradeReq accesses
system.cpu.l2cache.ReadExReq_miss_rate::cpu.data     0.363017                       # miss rate for ReadExReq accesses
system.cpu.l2cache.ReadExReq_miss_rate::total     0.363017                       # miss rate for ReadExReq accesses
system.cpu.l2cache.demand_miss_rate::cpu.dtb.walker     0.000157                       # miss rate for demand accesses
system.cpu.l2cache.demand_miss_rate::cpu.itb.walker     0.001734                       # miss rate for demand accesses
system.cpu.l2cache.demand_miss_rate::cpu.inst     0.016304                       # miss rate for demand accesses
system.cpu.l2cache.demand_miss_rate::cpu.data     0.087820                       # miss rate for demand accesses
system.cpu.l2cache.demand_miss_rate::total     0.064039                       # miss rate for demand accesses
system.cpu.l2cache.overall_miss_rate::cpu.dtb.walker     0.000157                       # miss rate for overall accesses
system.cpu.l2cache.overall_miss_rate::cpu.itb.walker     0.001734                       # miss rate for overall accesses
system.cpu.l2cache.overall_miss_rate::cpu.inst     0.016304                       # miss rate for overall accesses
system.cpu.l2cache.overall_miss_rate::cpu.data     0.087820                       # miss rate for overall accesses
system.cpu.l2cache.overall_miss_rate::total     0.064039                       # miss rate for overall accesses
system.cpu.l2cache.ReadReq_avg_miss_latency::cpu.dtb.walker        61250                       # average ReadReq miss latency
system.cpu.l2cache.ReadReq_avg_miss_latency::cpu.itb.walker        70150                       # average ReadReq miss latency
system.cpu.l2cache.ReadReq_avg_miss_latency::cpu.inst 73051.685567                       # average ReadReq miss latency
system.cpu.l2cache.ReadReq_avg_miss_latency::cpu.data 75012.088890                       # average ReadReq miss latency
system.cpu.l2cache.ReadReq_avg_miss_latency::total 74400.453005                       # average ReadReq miss latency
system.cpu.l2cache.UpgradeReq_avg_miss_latency::cpu.data 11281.406792                       # average UpgradeReq miss latency
system.cpu.l2cache.UpgradeReq_avg_miss_latency::total 11281.406792                       # average UpgradeReq miss latency
system.cpu.l2cache.ReadExReq_avg_miss_latency::cpu.data 69188.956192                       # average ReadExReq miss latency
system.cpu.l2cache.ReadExReq_avg_miss_latency::total 69188.956192                       # average ReadExReq miss latency
system.cpu.l2cache.demand_avg_miss_latency::cpu.dtb.walker        61250                       # average overall miss latency
system.cpu.l2cache.demand_avg_miss_latency::cpu.itb.walker        70150                       # average overall miss latency
system.cpu.l2cache.demand_avg_miss_latency::cpu.inst 73051.685567                       # average overall miss latency
system.cpu.l2cache.demand_avg_miss_latency::cpu.data 70360.873973                       # average overall miss latency
system.cpu.l2cache.demand_avg_miss_latency::total 70585.429801                       # average overall miss latency
system.cpu.l2cache.overall_avg_miss_latency::cpu.dtb.walker        61250                       # average overall miss latency
system.cpu.l2cache.overall_avg_miss_latency::cpu.itb.walker        70150                       # average overall miss latency
system.cpu.l2cache.overall_avg_miss_latency::cpu.inst 73051.685567                       # average overall miss latency
system.cpu.l2cache.overall_avg_miss_latency::cpu.data 70360.873973                       # average overall miss latency
system.cpu.l2cache.overall_avg_miss_latency::total 70585.429801                       # average overall miss latency
system.cpu.l2cache.blocked_cycles::no_mshrs            0                       # number of cycles access was blocked
system.cpu.l2cache.blocked_cycles::no_targets            0                       # number of cycles access was blocked
system.cpu.l2cache.blocked::no_mshrs                0                       # number of cycles access was blocked
system.cpu.l2cache.blocked::no_targets              0                       # number of cycles access was blocked
system.cpu.l2cache.avg_blocked_cycles::no_mshrs          nan                       # average number of cycles each access was blocked
system.cpu.l2cache.avg_blocked_cycles::no_targets          nan                       # average number of cycles each access was blocked
system.cpu.l2cache.fast_writes                      0                       # number of fast writes performed
system.cpu.l2cache.cache_copies                     0                       # number of cache copies performed
system.cpu.l2cache.writebacks::writebacks        80285                       # number of writebacks
system.cpu.l2cache.writebacks::total            80285                       # number of writebacks
system.cpu.l2cache.ReadReq_mshr_misses::cpu.dtb.walker            1                       # number of ReadReq MSHR misses
system.cpu.l2cache.ReadReq_mshr_misses::cpu.itb.walker            5                       # number of ReadReq MSHR misses
system.cpu.l2cache.ReadReq_mshr_misses::cpu.inst        12963                       # number of ReadReq MSHR misses
system.cpu.l2cache.ReadReq_mshr_misses::cpu.data        28642                       # number of ReadReq MSHR misses
system.cpu.l2cache.ReadReq_mshr_misses::total        41611                       # number of ReadReq MSHR misses
system.cpu.l2cache.UpgradeReq_mshr_misses::cpu.data         1325                       # number of UpgradeReq MSHR misses
system.cpu.l2cache.UpgradeReq_mshr_misses::total         1325                       # number of UpgradeReq MSHR misses
system.cpu.l2cache.ReadExReq_mshr_misses::cpu.data       113677                       # number of ReadExReq MSHR misses
system.cpu.l2cache.ReadExReq_mshr_misses::total       113677                       # number of ReadExReq MSHR misses
system.cpu.l2cache.demand_mshr_misses::cpu.dtb.walker            1                       # number of demand (read+write) MSHR misses
system.cpu.l2cache.demand_mshr_misses::cpu.itb.walker            5                       # number of demand (read+write) MSHR misses
system.cpu.l2cache.demand_mshr_misses::cpu.inst        12963                       # number of demand (read+write) MSHR misses
system.cpu.l2cache.demand_mshr_misses::cpu.data       142319                       # number of demand (read+write) MSHR misses
system.cpu.l2cache.demand_mshr_misses::total       155288                       # number of demand (read+write) MSHR misses
system.cpu.l2cache.overall_mshr_misses::cpu.dtb.walker            1                       # number of overall MSHR misses
system.cpu.l2cache.overall_mshr_misses::cpu.itb.walker            5                       # number of overall MSHR misses
system.cpu.l2cache.overall_mshr_misses::cpu.inst        12963                       # number of overall MSHR misses
system.cpu.l2cache.overall_mshr_misses::cpu.data       142319                       # number of overall MSHR misses
system.cpu.l2cache.overall_mshr_misses::total       155288                       # number of overall MSHR misses
system.cpu.l2cache.ReadReq_mshr_miss_latency::cpu.dtb.walker        48750                       # number of ReadReq MSHR miss cycles
system.cpu.l2cache.ReadReq_mshr_miss_latency::cpu.itb.walker       287750                       # number of ReadReq MSHR miss cycles
system.cpu.l2cache.ReadReq_mshr_miss_latency::cpu.inst    784590000                       # number of ReadReq MSHR miss cycles
system.cpu.l2cache.ReadReq_mshr_miss_latency::cpu.data   1789530750                       # number of ReadReq MSHR miss cycles
system.cpu.l2cache.ReadReq_mshr_miss_latency::total   2574457250                       # number of ReadReq MSHR miss cycles
system.cpu.l2cache.UpgradeReq_mshr_miss_latency::cpu.data     13262825                       # number of UpgradeReq MSHR miss cycles
system.cpu.l2cache.UpgradeReq_mshr_miss_latency::total     13262825                       # number of UpgradeReq MSHR miss cycles
system.cpu.l2cache.ReadExReq_mshr_miss_latency::cpu.data   6444689027                       # number of ReadExReq MSHR miss cycles
system.cpu.l2cache.ReadExReq_mshr_miss_latency::total   6444689027                       # number of ReadExReq MSHR miss cycles
system.cpu.l2cache.demand_mshr_miss_latency::cpu.dtb.walker        48750                       # number of demand (read+write) MSHR miss cycles
system.cpu.l2cache.demand_mshr_miss_latency::cpu.itb.walker       287750                       # number of demand (read+write) MSHR miss cycles
system.cpu.l2cache.demand_mshr_miss_latency::cpu.inst    784590000                       # number of demand (read+write) MSHR miss cycles
system.cpu.l2cache.demand_mshr_miss_latency::cpu.data   8234219777                       # number of demand (read+write) MSHR miss cycles
system.cpu.l2cache.demand_mshr_miss_latency::total   9019146277                       # number of demand (read+write) MSHR miss cycles
system.cpu.l2cache.overall_mshr_miss_latency::cpu.dtb.walker        48750                       # number of overall MSHR miss cycles
system.cpu.l2cache.overall_mshr_miss_latency::cpu.itb.walker       287750                       # number of overall MSHR miss cycles
system.cpu.l2cache.overall_mshr_miss_latency::cpu.inst    784590000                       # number of overall MSHR miss cycles
system.cpu.l2cache.overall_mshr_miss_latency::cpu.data   8234219777                       # number of overall MSHR miss cycles
system.cpu.l2cache.overall_mshr_miss_latency::total   9019146277                       # number of overall MSHR miss cycles
system.cpu.l2cache.ReadReq_mshr_uncacheable_latency::cpu.data  86655868500                       # number of ReadReq MSHR uncacheable cycles
system.cpu.l2cache.ReadReq_mshr_uncacheable_latency::total  86655868500                       # number of ReadReq MSHR uncacheable cycles
system.cpu.l2cache.WriteReq_mshr_uncacheable_latency::cpu.data   2370634000                       # number of WriteReq MSHR uncacheable cycles
system.cpu.l2cache.WriteReq_mshr_uncacheable_latency::total   2370634000                       # number of WriteReq MSHR uncacheable cycles
system.cpu.l2cache.overall_mshr_uncacheable_latency::cpu.data  89026502500                       # number of overall MSHR uncacheable cycles
system.cpu.l2cache.overall_mshr_uncacheable_latency::total  89026502500                       # number of overall MSHR uncacheable cycles
system.cpu.l2cache.ReadReq_mshr_miss_rate::cpu.dtb.walker     0.000157                       # mshr miss rate for ReadReq accesses
system.cpu.l2cache.ReadReq_mshr_miss_rate::cpu.itb.walker     0.001734                       # mshr miss rate for ReadReq accesses
system.cpu.l2cache.ReadReq_mshr_miss_rate::cpu.inst     0.016304                       # mshr miss rate for ReadReq accesses
system.cpu.l2cache.ReadReq_mshr_miss_rate::cpu.data     0.021907                       # mshr miss rate for ReadReq accesses
system.cpu.l2cache.ReadReq_mshr_miss_rate::total     0.019705                       # mshr miss rate for ReadReq accesses
system.cpu.l2cache.UpgradeReq_mshr_miss_rate::cpu.data     0.808420                       # mshr miss rate for UpgradeReq accesses
system.cpu.l2cache.UpgradeReq_mshr_miss_rate::total     0.808420                       # mshr miss rate for UpgradeReq accesses
system.cpu.l2cache.ReadExReq_mshr_miss_rate::cpu.data     0.363017                       # mshr miss rate for ReadExReq accesses
system.cpu.l2cache.ReadExReq_mshr_miss_rate::total     0.363017                       # mshr miss rate for ReadExReq accesses
system.cpu.l2cache.demand_mshr_miss_rate::cpu.dtb.walker     0.000157                       # mshr miss rate for demand accesses
system.cpu.l2cache.demand_mshr_miss_rate::cpu.itb.walker     0.001734                       # mshr miss rate for demand accesses
system.cpu.l2cache.demand_mshr_miss_rate::cpu.inst     0.016304                       # mshr miss rate for demand accesses
system.cpu.l2cache.demand_mshr_miss_rate::cpu.data     0.087820                       # mshr miss rate for demand accesses
system.cpu.l2cache.demand_mshr_miss_rate::total     0.064039                       # mshr miss rate for demand accesses
system.cpu.l2cache.overall_mshr_miss_rate::cpu.dtb.walker     0.000157                       # mshr miss rate for overall accesses
system.cpu.l2cache.overall_mshr_miss_rate::cpu.itb.walker     0.001734                       # mshr miss rate for overall accesses
system.cpu.l2cache.overall_mshr_miss_rate::cpu.inst     0.016304                       # mshr miss rate for overall accesses
system.cpu.l2cache.overall_mshr_miss_rate::cpu.data     0.087820                       # mshr miss rate for overall accesses
system.cpu.l2cache.overall_mshr_miss_rate::total     0.064039                       # mshr miss rate for overall accesses
system.cpu.l2cache.ReadReq_avg_mshr_miss_latency::cpu.dtb.walker        48750                       # average ReadReq mshr miss latency
system.cpu.l2cache.ReadReq_avg_mshr_miss_latency::cpu.itb.walker        57550                       # average ReadReq mshr miss latency
system.cpu.l2cache.ReadReq_avg_mshr_miss_latency::cpu.inst 60525.341356                       # average ReadReq mshr miss latency
system.cpu.l2cache.ReadReq_avg_mshr_miss_latency::cpu.data 62479.252496                       # average ReadReq mshr miss latency
system.cpu.l2cache.ReadReq_avg_mshr_miss_latency::total 61869.631828                       # average ReadReq mshr miss latency
system.cpu.l2cache.UpgradeReq_avg_mshr_miss_latency::cpu.data 10009.679245                       # average UpgradeReq mshr miss latency
system.cpu.l2cache.UpgradeReq_avg_mshr_miss_latency::total 10009.679245                       # average UpgradeReq mshr miss latency
system.cpu.l2cache.ReadExReq_avg_mshr_miss_latency::cpu.data 56692.990024                       # average ReadExReq mshr miss latency
system.cpu.l2cache.ReadExReq_avg_mshr_miss_latency::total 56692.990024                       # average ReadExReq mshr miss latency
system.cpu.l2cache.demand_avg_mshr_miss_latency::cpu.dtb.walker        48750                       # average overall mshr miss latency
system.cpu.l2cache.demand_avg_mshr_miss_latency::cpu.itb.walker        57550                       # average overall mshr miss latency
system.cpu.l2cache.demand_avg_mshr_miss_latency::cpu.inst 60525.341356                       # average overall mshr miss latency
system.cpu.l2cache.demand_avg_mshr_miss_latency::cpu.data 57857.487595                       # average overall mshr miss latency
system.cpu.l2cache.demand_avg_mshr_miss_latency::total 58080.123880                       # average overall mshr miss latency
system.cpu.l2cache.overall_avg_mshr_miss_latency::cpu.dtb.walker        48750                       # average overall mshr miss latency
system.cpu.l2cache.overall_avg_mshr_miss_latency::cpu.itb.walker        57550                       # average overall mshr miss latency
system.cpu.l2cache.overall_avg_mshr_miss_latency::cpu.inst 60525.341356                       # average overall mshr miss latency
system.cpu.l2cache.overall_avg_mshr_miss_latency::cpu.data 57857.487595                       # average overall mshr miss latency
system.cpu.l2cache.overall_avg_mshr_miss_latency::total 58080.123880                       # average overall mshr miss latency
system.cpu.l2cache.ReadReq_avg_mshr_uncacheable_latency::cpu.data          inf                       # average ReadReq mshr uncacheable latency
system.cpu.l2cache.ReadReq_avg_mshr_uncacheable_latency::total          inf                       # average ReadReq mshr uncacheable latency
system.cpu.l2cache.WriteReq_avg_mshr_uncacheable_latency::cpu.data          inf                       # average WriteReq mshr uncacheable latency
system.cpu.l2cache.WriteReq_avg_mshr_uncacheable_latency::total          inf                       # average WriteReq mshr uncacheable latency
system.cpu.l2cache.overall_avg_mshr_uncacheable_latency::cpu.data          inf                       # average overall mshr uncacheable latency
system.cpu.l2cache.overall_avg_mshr_uncacheable_latency::total          inf                       # average overall mshr uncacheable latency
system.cpu.l2cache.no_allocate_misses               0                       # Number of misses that were no-allocate

---------- End Simulation Statistics   ----------
