gem5 Simulator System.  http://gem5.org
gem5 is copyrighted software; use the --copyright option for details.

gem5 compiled Nov  1 2012 15:18:10
gem5 started Nov  1 2012 22:40:56
gem5 executing on u200540-lin
command line: build/ARM/gem5.opt -d build/ARM/tests/opt/quick/se/00.hello/arm/linux/o3-timing-checker -re tests/run.py build/ARM/tests/opt/quick/se/00.hello/arm/linux/o3-timing-checker
Global frequency set at 1000000000000 ticks per second
info: Entering event queue @ 0.  Starting simulation...
Hello world!
Exiting @ tick 13371000 because target called exit()
