gem5 Simulator System.  http://gem5.org
gem5 is copyrighted software; use the --copyright option for details.

gem5 compiled Mar 17 2012 11:46:05
gem5 started Mar 17 2012 16:33:35
gem5 executing on u200540-lin
command line: build/ARM/gem5.fast -d build/ARM/tests/fast/quick/se/00.hello/arm/linux/o3-timing-checker -re tests/run.py build/ARM/tests/fast/quick/se/00.hello/arm/linux/o3-timing-checker
Global frequency set at 1000000000000 ticks per second
info: Entering event queue @ 0.  Starting simulation...
Hello world!
Exiting @ tick 10303500 because target called exit()
