
---------- Begin Simulation Statistics ----------
sim_seconds                                 47.395178                       # Number of seconds simulated
sim_ticks                                47395178174000                       # Number of ticks simulated
final_tick                               47395178174000                       # Number of ticks from beginning of simulation (restored from checkpoints and never reset)
sim_freq                                 1000000000000                       # Frequency of simulated ticks
host_inst_rate                                  85380                       # Simulator instruction rate (inst/s)
host_op_rate                                   100389                       # Simulator op (including micro ops) rate (op/s)
host_tick_rate                             4378207332                       # Simulator tick rate (ticks/s)
host_mem_usage                                 733200                       # Number of bytes of host memory used
host_seconds                                 10825.25                       # Real time elapsed on the host
sim_insts                                   924259255                       # Number of instructions simulated
sim_ops                                    1086731985                       # Number of ops (including micro ops) simulated
system.voltage_domain.voltage                       1                       # Voltage in Volts
system.clk_domain.clock                          1000                       # Clock period in ticks
system.physmem.bytes_read::cpu0.dtb.walker       173952                       # Number of bytes read from this memory
system.physmem.bytes_read::cpu0.itb.walker       172224                       # Number of bytes read from this memory
system.physmem.bytes_read::cpu0.inst          5051936                       # Number of bytes read from this memory
system.physmem.bytes_read::cpu0.data         46751112                       # Number of bytes read from this memory
system.physmem.bytes_read::cpu0.l2cache.prefetcher     21558016                       # Number of bytes read from this memory
system.physmem.bytes_read::cpu1.dtb.walker       154688                       # Number of bytes read from this memory
system.physmem.bytes_read::cpu1.itb.walker       128576                       # Number of bytes read from this memory
system.physmem.bytes_read::cpu1.inst          2266144                       # Number of bytes read from this memory
system.physmem.bytes_read::cpu1.data         13742800                       # Number of bytes read from this memory
system.physmem.bytes_read::cpu1.l2cache.prefetcher     14572608                       # Number of bytes read from this memory
system.physmem.bytes_read::realview.ide        453056                       # Number of bytes read from this memory
system.physmem.bytes_read::total            105025112                       # Number of bytes read from this memory
system.physmem.bytes_inst_read::cpu0.inst      5051936                       # Number of instructions bytes read from this memory
system.physmem.bytes_inst_read::cpu1.inst      2266144                       # Number of instructions bytes read from this memory
system.physmem.bytes_inst_read::total         7318080                       # Number of instructions bytes read from this memory
system.physmem.bytes_written::writebacks     87763520                       # Number of bytes written to this memory
system.physmem.bytes_written::cpu0.data         20580                       # Number of bytes written to this memory
system.physmem.bytes_written::cpu1.data             4                       # Number of bytes written to this memory
system.physmem.bytes_written::total          87784104                       # Number of bytes written to this memory
system.physmem.num_reads::cpu0.dtb.walker         2718                       # Number of read requests responded to by this memory
system.physmem.num_reads::cpu0.itb.walker         2691                       # Number of read requests responded to by this memory
system.physmem.num_reads::cpu0.inst             94889                       # Number of read requests responded to by this memory
system.physmem.num_reads::cpu0.data            730499                       # Number of read requests responded to by this memory
system.physmem.num_reads::cpu0.l2cache.prefetcher       336844                       # Number of read requests responded to by this memory
system.physmem.num_reads::cpu1.dtb.walker         2417                       # Number of read requests responded to by this memory
system.physmem.num_reads::cpu1.itb.walker         2009                       # Number of read requests responded to by this memory
system.physmem.num_reads::cpu1.inst             35452                       # Number of read requests responded to by this memory
system.physmem.num_reads::cpu1.data            214744                       # Number of read requests responded to by this memory
system.physmem.num_reads::cpu1.l2cache.prefetcher       227697                       # Number of read requests responded to by this memory
system.physmem.num_reads::realview.ide           7079                       # Number of read requests responded to by this memory
system.physmem.num_reads::total               1657039                       # Number of read requests responded to by this memory
system.physmem.num_writes::writebacks         1371305                       # Number of write requests responded to by this memory
system.physmem.num_writes::cpu0.data             2573                       # Number of write requests responded to by this memory
system.physmem.num_writes::cpu1.data                1                       # Number of write requests responded to by this memory
system.physmem.num_writes::total              1373879                       # Number of write requests responded to by this memory
system.physmem.bw_read::cpu0.dtb.walker          3670                       # Total read bandwidth from this memory (bytes/s)
system.physmem.bw_read::cpu0.itb.walker          3634                       # Total read bandwidth from this memory (bytes/s)
system.physmem.bw_read::cpu0.inst              106592                       # Total read bandwidth from this memory (bytes/s)
system.physmem.bw_read::cpu0.data              986411                       # Total read bandwidth from this memory (bytes/s)
system.physmem.bw_read::cpu0.l2cache.prefetcher       454857                       # Total read bandwidth from this memory (bytes/s)
system.physmem.bw_read::cpu1.dtb.walker          3264                       # Total read bandwidth from this memory (bytes/s)
system.physmem.bw_read::cpu1.itb.walker          2713                       # Total read bandwidth from this memory (bytes/s)
system.physmem.bw_read::cpu1.inst               47814                       # Total read bandwidth from this memory (bytes/s)
system.physmem.bw_read::cpu1.data              289962                       # Total read bandwidth from this memory (bytes/s)
system.physmem.bw_read::cpu1.l2cache.prefetcher       307470                       # Total read bandwidth from this memory (bytes/s)
system.physmem.bw_read::realview.ide             9559                       # Total read bandwidth from this memory (bytes/s)
system.physmem.bw_read::total                 2215945                       # Total read bandwidth from this memory (bytes/s)
system.physmem.bw_inst_read::cpu0.inst         106592                       # Instruction read bandwidth from this memory (bytes/s)
system.physmem.bw_inst_read::cpu1.inst          47814                       # Instruction read bandwidth from this memory (bytes/s)
system.physmem.bw_inst_read::total             154406                       # Instruction read bandwidth from this memory (bytes/s)
system.physmem.bw_write::writebacks           1851739                       # Write bandwidth from this memory (bytes/s)
system.physmem.bw_write::cpu0.data                434                       # Write bandwidth from this memory (bytes/s)
system.physmem.bw_write::cpu1.data                  0                       # Write bandwidth from this memory (bytes/s)
system.physmem.bw_write::total                1852174                       # Write bandwidth from this memory (bytes/s)
system.physmem.bw_total::writebacks           1851739                       # Total bandwidth to/from this memory (bytes/s)
system.physmem.bw_total::cpu0.dtb.walker         3670                       # Total bandwidth to/from this memory (bytes/s)
system.physmem.bw_total::cpu0.itb.walker         3634                       # Total bandwidth to/from this memory (bytes/s)
system.physmem.bw_total::cpu0.inst             106592                       # Total bandwidth to/from this memory (bytes/s)
system.physmem.bw_total::cpu0.data             986845                       # Total bandwidth to/from this memory (bytes/s)
system.physmem.bw_total::cpu0.l2cache.prefetcher       454857                       # Total bandwidth to/from this memory (bytes/s)
system.physmem.bw_total::cpu1.dtb.walker         3264                       # Total bandwidth to/from this memory (bytes/s)
system.physmem.bw_total::cpu1.itb.walker         2713                       # Total bandwidth to/from this memory (bytes/s)
system.physmem.bw_total::cpu1.inst              47814                       # Total bandwidth to/from this memory (bytes/s)
system.physmem.bw_total::cpu1.data             289962                       # Total bandwidth to/from this memory (bytes/s)
system.physmem.bw_total::cpu1.l2cache.prefetcher       307470                       # Total bandwidth to/from this memory (bytes/s)
system.physmem.bw_total::realview.ide            9559                       # Total bandwidth to/from this memory (bytes/s)
system.physmem.bw_total::total                4068119                       # Total bandwidth to/from this memory (bytes/s)
system.physmem.readReqs                       1657039                       # Number of read requests accepted
system.physmem.writeReqs                      1373879                       # Number of write requests accepted
system.physmem.readBursts                     1657039                       # Number of DRAM read bursts, including those serviced by the write queue
system.physmem.writeBursts                    1373879                       # Number of DRAM write bursts, including those merged in the write queue
system.physmem.bytesReadDRAM                106020736                       # Total number of bytes read from DRAM
system.physmem.bytesReadWrQ                     29760                       # Total number of bytes read from write queue
system.physmem.bytesWritten                  87783296                       # Total number of bytes written to DRAM
system.physmem.bytesReadSys                 105025112                       # Total read bytes from the system interface side
system.physmem.bytesWrittenSys               87784104                       # Total written bytes from the system interface side
system.physmem.servicedByWrQ                      465                       # Number of DRAM read bursts serviced by the write queue
system.physmem.mergedWrBursts                    2246                       # Number of DRAM write bursts merged with an existing one
system.physmem.neitherReadNorWriteReqs         224488                       # Number of requests that are neither read nor write
system.physmem.perBankRdBursts::0              100246                       # Per bank write bursts
system.physmem.perBankRdBursts::1              102501                       # Per bank write bursts
system.physmem.perBankRdBursts::2               99063                       # Per bank write bursts
system.physmem.perBankRdBursts::3              111016                       # Per bank write bursts
system.physmem.perBankRdBursts::4              103342                       # Per bank write bursts
system.physmem.perBankRdBursts::5              111704                       # Per bank write bursts
system.physmem.perBankRdBursts::6              101938                       # Per bank write bursts
system.physmem.perBankRdBursts::7              100431                       # Per bank write bursts
system.physmem.perBankRdBursts::8               95106                       # Per bank write bursts
system.physmem.perBankRdBursts::9              125245                       # Per bank write bursts
system.physmem.perBankRdBursts::10             101573                       # Per bank write bursts
system.physmem.perBankRdBursts::11             106068                       # Per bank write bursts
system.physmem.perBankRdBursts::12              95582                       # Per bank write bursts
system.physmem.perBankRdBursts::13             100418                       # Per bank write bursts
system.physmem.perBankRdBursts::14             101028                       # Per bank write bursts
system.physmem.perBankRdBursts::15             101313                       # Per bank write bursts
system.physmem.perBankWrBursts::0               83566                       # Per bank write bursts
system.physmem.perBankWrBursts::1               87156                       # Per bank write bursts
system.physmem.perBankWrBursts::2               83944                       # Per bank write bursts
system.physmem.perBankWrBursts::3               90509                       # Per bank write bursts
system.physmem.perBankWrBursts::4               85224                       # Per bank write bursts
system.physmem.perBankWrBursts::5               91500                       # Per bank write bursts
system.physmem.perBankWrBursts::6               84276                       # Per bank write bursts
system.physmem.perBankWrBursts::7               85215                       # Per bank write bursts
system.physmem.perBankWrBursts::8               82233                       # Per bank write bursts
system.physmem.perBankWrBursts::9               88133                       # Per bank write bursts
system.physmem.perBankWrBursts::10              85317                       # Per bank write bursts
system.physmem.perBankWrBursts::11              88722                       # Per bank write bursts
system.physmem.perBankWrBursts::12              80882                       # Per bank write bursts
system.physmem.perBankWrBursts::13              85628                       # Per bank write bursts
system.physmem.perBankWrBursts::14              84824                       # Per bank write bursts
system.physmem.perBankWrBursts::15              84485                       # Per bank write bursts
system.physmem.numRdRetry                           0                       # Number of times read queue was full causing retry
system.physmem.numWrRetry                          14                       # Number of times write queue was full causing retry
system.physmem.totGap                    47395176675500                       # Total gap between requests
system.physmem.readPktSize::0                       0                       # Read request sizes (log2)
system.physmem.readPktSize::1                       0                       # Read request sizes (log2)
system.physmem.readPktSize::2                       0                       # Read request sizes (log2)
system.physmem.readPktSize::3                      25                       # Read request sizes (log2)
system.physmem.readPktSize::4                   21333                       # Read request sizes (log2)
system.physmem.readPktSize::5                       0                       # Read request sizes (log2)
system.physmem.readPktSize::6                 1635681                       # Read request sizes (log2)
system.physmem.writePktSize::0                      0                       # Write request sizes (log2)
system.physmem.writePktSize::1                      0                       # Write request sizes (log2)
system.physmem.writePktSize::2                      2                       # Write request sizes (log2)
system.physmem.writePktSize::3                   2572                       # Write request sizes (log2)
system.physmem.writePktSize::4                      0                       # Write request sizes (log2)
system.physmem.writePktSize::5                      0                       # Write request sizes (log2)
system.physmem.writePktSize::6                1371305                       # Write request sizes (log2)
system.physmem.rdQLenPdf::0                    618737                       # What read queue length does an incoming req see
system.physmem.rdQLenPdf::1                    421038                       # What read queue length does an incoming req see
system.physmem.rdQLenPdf::2                    166212                       # What read queue length does an incoming req see
system.physmem.rdQLenPdf::3                    166706                       # What read queue length does an incoming req see
system.physmem.rdQLenPdf::4                    103650                       # What read queue length does an incoming req see
system.physmem.rdQLenPdf::5                     63464                       # What read queue length does an incoming req see
system.physmem.rdQLenPdf::6                     34359                       # What read queue length does an incoming req see
system.physmem.rdQLenPdf::7                     32178                       # What read queue length does an incoming req see
system.physmem.rdQLenPdf::8                     28455                       # What read queue length does an incoming req see
system.physmem.rdQLenPdf::9                      8186                       # What read queue length does an incoming req see
system.physmem.rdQLenPdf::10                     4495                       # What read queue length does an incoming req see
system.physmem.rdQLenPdf::11                     2867                       # What read queue length does an incoming req see
system.physmem.rdQLenPdf::12                     1852                       # What read queue length does an incoming req see
system.physmem.rdQLenPdf::13                     1478                       # What read queue length does an incoming req see
system.physmem.rdQLenPdf::14                      956                       # What read queue length does an incoming req see
system.physmem.rdQLenPdf::15                      670                       # What read queue length does an incoming req see
system.physmem.rdQLenPdf::16                      561                       # What read queue length does an incoming req see
system.physmem.rdQLenPdf::17                      434                       # What read queue length does an incoming req see
system.physmem.rdQLenPdf::18                      150                       # What read queue length does an incoming req see
system.physmem.rdQLenPdf::19                      106                       # What read queue length does an incoming req see
system.physmem.rdQLenPdf::20                       10                       # What read queue length does an incoming req see
system.physmem.rdQLenPdf::21                        3                       # What read queue length does an incoming req see
system.physmem.rdQLenPdf::22                        3                       # What read queue length does an incoming req see
system.physmem.rdQLenPdf::23                        2                       # What read queue length does an incoming req see
system.physmem.rdQLenPdf::24                        1                       # What read queue length does an incoming req see
system.physmem.rdQLenPdf::25                        1                       # What read queue length does an incoming req see
system.physmem.rdQLenPdf::26                        0                       # What read queue length does an incoming req see
system.physmem.rdQLenPdf::27                        0                       # What read queue length does an incoming req see
system.physmem.rdQLenPdf::28                        0                       # What read queue length does an incoming req see
system.physmem.rdQLenPdf::29                        0                       # What read queue length does an incoming req see
system.physmem.rdQLenPdf::30                        0                       # What read queue length does an incoming req see
system.physmem.rdQLenPdf::31                        0                       # What read queue length does an incoming req see
system.physmem.wrQLenPdf::0                         1                       # What write queue length does an incoming req see
system.physmem.wrQLenPdf::1                         1                       # What write queue length does an incoming req see
system.physmem.wrQLenPdf::2                         1                       # What write queue length does an incoming req see
system.physmem.wrQLenPdf::3                         1                       # What write queue length does an incoming req see
system.physmem.wrQLenPdf::4                         1                       # What write queue length does an incoming req see
system.physmem.wrQLenPdf::5                         1                       # What write queue length does an incoming req see
system.physmem.wrQLenPdf::6                         1                       # What write queue length does an incoming req see
system.physmem.wrQLenPdf::7                         1                       # What write queue length does an incoming req see
system.physmem.wrQLenPdf::8                         1                       # What write queue length does an incoming req see
system.physmem.wrQLenPdf::9                         1                       # What write queue length does an incoming req see
system.physmem.wrQLenPdf::10                        1                       # What write queue length does an incoming req see
system.physmem.wrQLenPdf::11                        1                       # What write queue length does an incoming req see
system.physmem.wrQLenPdf::12                        1                       # What write queue length does an incoming req see
system.physmem.wrQLenPdf::13                        1                       # What write queue length does an incoming req see
system.physmem.wrQLenPdf::14                        1                       # What write queue length does an incoming req see
system.physmem.wrQLenPdf::15                    20142                       # What write queue length does an incoming req see
system.physmem.wrQLenPdf::16                    22530                       # What write queue length does an incoming req see
system.physmem.wrQLenPdf::17                    34959                       # What write queue length does an incoming req see
system.physmem.wrQLenPdf::18                    43149                       # What write queue length does an incoming req see
system.physmem.wrQLenPdf::19                    52927                       # What write queue length does an incoming req see
system.physmem.wrQLenPdf::20                    61801                       # What write queue length does an incoming req see
system.physmem.wrQLenPdf::21                    71450                       # What write queue length does an incoming req see
system.physmem.wrQLenPdf::22                    78161                       # What write queue length does an incoming req see
system.physmem.wrQLenPdf::23                    85169                       # What write queue length does an incoming req see
system.physmem.wrQLenPdf::24                    89148                       # What write queue length does an incoming req see
system.physmem.wrQLenPdf::25                    92391                       # What write queue length does an incoming req see
system.physmem.wrQLenPdf::26                    98600                       # What write queue length does an incoming req see
system.physmem.wrQLenPdf::27                    97124                       # What write queue length does an incoming req see
system.physmem.wrQLenPdf::28                   100685                       # What write queue length does an incoming req see
system.physmem.wrQLenPdf::29                   113079                       # What write queue length does an incoming req see
system.physmem.wrQLenPdf::30                   104553                       # What write queue length does an incoming req see
system.physmem.wrQLenPdf::31                    98049                       # What write queue length does an incoming req see
system.physmem.wrQLenPdf::32                    87257                       # What write queue length does an incoming req see
system.physmem.wrQLenPdf::33                     5674                       # What write queue length does an incoming req see
system.physmem.wrQLenPdf::34                     3301                       # What write queue length does an incoming req see
system.physmem.wrQLenPdf::35                     2066                       # What write queue length does an incoming req see
system.physmem.wrQLenPdf::36                     1381                       # What write queue length does an incoming req see
system.physmem.wrQLenPdf::37                      974                       # What write queue length does an incoming req see
system.physmem.wrQLenPdf::38                      793                       # What write queue length does an incoming req see
system.physmem.wrQLenPdf::39                      580                       # What write queue length does an incoming req see
system.physmem.wrQLenPdf::40                      491                       # What write queue length does an incoming req see
system.physmem.wrQLenPdf::41                      458                       # What write queue length does an incoming req see
system.physmem.wrQLenPdf::42                      389                       # What write queue length does an incoming req see
system.physmem.wrQLenPdf::43                      368                       # What write queue length does an incoming req see
system.physmem.wrQLenPdf::44                      356                       # What write queue length does an incoming req see
system.physmem.wrQLenPdf::45                      330                       # What write queue length does an incoming req see
system.physmem.wrQLenPdf::46                      291                       # What write queue length does an incoming req see
system.physmem.wrQLenPdf::47                      355                       # What write queue length does an incoming req see
system.physmem.wrQLenPdf::48                      317                       # What write queue length does an incoming req see
system.physmem.wrQLenPdf::49                      381                       # What write queue length does an incoming req see
system.physmem.wrQLenPdf::50                      276                       # What write queue length does an incoming req see
system.physmem.wrQLenPdf::51                      259                       # What write queue length does an incoming req see
system.physmem.wrQLenPdf::52                      205                       # What write queue length does an incoming req see
system.physmem.wrQLenPdf::53                      248                       # What write queue length does an incoming req see
system.physmem.wrQLenPdf::54                      190                       # What write queue length does an incoming req see
system.physmem.wrQLenPdf::55                      159                       # What write queue length does an incoming req see
system.physmem.wrQLenPdf::56                      125                       # What write queue length does an incoming req see
system.physmem.wrQLenPdf::57                      122                       # What write queue length does an incoming req see
system.physmem.wrQLenPdf::58                       65                       # What write queue length does an incoming req see
system.physmem.wrQLenPdf::59                       72                       # What write queue length does an incoming req see
system.physmem.wrQLenPdf::60                       71                       # What write queue length does an incoming req see
system.physmem.wrQLenPdf::61                       71                       # What write queue length does an incoming req see
system.physmem.wrQLenPdf::62                       42                       # What write queue length does an incoming req see
system.physmem.wrQLenPdf::63                       34                       # What write queue length does an incoming req see
system.physmem.bytesPerActivate::samples      1046566                       # Bytes accessed per row activation
system.physmem.bytesPerActivate::mean      185.180531                       # Bytes accessed per row activation
system.physmem.bytesPerActivate::gmean     114.222366                       # Bytes accessed per row activation
system.physmem.bytesPerActivate::stdev     242.012748                       # Bytes accessed per row activation
system.physmem.bytesPerActivate::0-127         630659     60.26%     60.26% # Bytes accessed per row activation
system.physmem.bytesPerActivate::128-255       204416     19.53%     79.79% # Bytes accessed per row activation
system.physmem.bytesPerActivate::256-383        66292      6.33%     86.13% # Bytes accessed per row activation
system.physmem.bytesPerActivate::384-511        36110      3.45%     89.58% # Bytes accessed per row activation
system.physmem.bytesPerActivate::512-639        25913      2.48%     92.05% # Bytes accessed per row activation
system.physmem.bytesPerActivate::640-767        14303      1.37%     93.42% # Bytes accessed per row activation
system.physmem.bytesPerActivate::768-895        14388      1.37%     94.79% # Bytes accessed per row activation
system.physmem.bytesPerActivate::896-1023         7964      0.76%     95.55% # Bytes accessed per row activation
system.physmem.bytesPerActivate::1024-1151        46521      4.45%    100.00% # Bytes accessed per row activation
system.physmem.bytesPerActivate::total        1046566                       # Bytes accessed per row activation
system.physmem.rdPerTurnAround::samples         78027                       # Reads before turning the bus around for writes
system.physmem.rdPerTurnAround::mean        21.230689                       # Reads before turning the bus around for writes
system.physmem.rdPerTurnAround::stdev      247.022438                       # Reads before turning the bus around for writes
system.physmem.rdPerTurnAround::0-4095          78024    100.00%    100.00% # Reads before turning the bus around for writes
system.physmem.rdPerTurnAround::4096-8191            1      0.00%    100.00% # Reads before turning the bus around for writes
system.physmem.rdPerTurnAround::8192-12287            1      0.00%    100.00% # Reads before turning the bus around for writes
system.physmem.rdPerTurnAround::65536-69631            1      0.00%    100.00% # Reads before turning the bus around for writes
system.physmem.rdPerTurnAround::total           78027                       # Reads before turning the bus around for writes
system.physmem.wrPerTurnAround::samples         78027                       # Writes before turning the bus around for reads
system.physmem.wrPerTurnAround::mean        17.578710                       # Writes before turning the bus around for reads
system.physmem.wrPerTurnAround::gmean       17.107570                       # Writes before turning the bus around for reads
system.physmem.wrPerTurnAround::stdev        6.499017                       # Writes before turning the bus around for reads
system.physmem.wrPerTurnAround::16-19           72603     93.05%     93.05% # Writes before turning the bus around for reads
system.physmem.wrPerTurnAround::20-23            2990      3.83%     96.88% # Writes before turning the bus around for reads
system.physmem.wrPerTurnAround::24-27             480      0.62%     97.50% # Writes before turning the bus around for reads
system.physmem.wrPerTurnAround::28-31             334      0.43%     97.92% # Writes before turning the bus around for reads
system.physmem.wrPerTurnAround::32-35              81      0.10%     98.03% # Writes before turning the bus around for reads
system.physmem.wrPerTurnAround::36-39             301      0.39%     98.41% # Writes before turning the bus around for reads
system.physmem.wrPerTurnAround::40-43             173      0.22%     98.64% # Writes before turning the bus around for reads
system.physmem.wrPerTurnAround::44-47             106      0.14%     98.77% # Writes before turning the bus around for reads
system.physmem.wrPerTurnAround::48-51              88      0.11%     98.88% # Writes before turning the bus around for reads
system.physmem.wrPerTurnAround::52-55             126      0.16%     99.05% # Writes before turning the bus around for reads
system.physmem.wrPerTurnAround::56-59              37      0.05%     99.09% # Writes before turning the bus around for reads
system.physmem.wrPerTurnAround::60-63              56      0.07%     99.16% # Writes before turning the bus around for reads
system.physmem.wrPerTurnAround::64-67             406      0.52%     99.68% # Writes before turning the bus around for reads
system.physmem.wrPerTurnAround::68-71              31      0.04%     99.72% # Writes before turning the bus around for reads
system.physmem.wrPerTurnAround::72-75              24      0.03%     99.76% # Writes before turning the bus around for reads
system.physmem.wrPerTurnAround::76-79             123      0.16%     99.91% # Writes before turning the bus around for reads
system.physmem.wrPerTurnAround::80-83              13      0.02%     99.93% # Writes before turning the bus around for reads
system.physmem.wrPerTurnAround::84-87               1      0.00%     99.93% # Writes before turning the bus around for reads
system.physmem.wrPerTurnAround::92-95               4      0.01%     99.94% # Writes before turning the bus around for reads
system.physmem.wrPerTurnAround::96-99               5      0.01%     99.94% # Writes before turning the bus around for reads
system.physmem.wrPerTurnAround::100-103             1      0.00%     99.94% # Writes before turning the bus around for reads
system.physmem.wrPerTurnAround::104-107             2      0.00%     99.95% # Writes before turning the bus around for reads
system.physmem.wrPerTurnAround::112-115             2      0.00%     99.95% # Writes before turning the bus around for reads
system.physmem.wrPerTurnAround::124-127             1      0.00%     99.95% # Writes before turning the bus around for reads
system.physmem.wrPerTurnAround::128-131            17      0.02%     99.97% # Writes before turning the bus around for reads
system.physmem.wrPerTurnAround::136-139             1      0.00%     99.97% # Writes before turning the bus around for reads
system.physmem.wrPerTurnAround::140-143             5      0.01%     99.98% # Writes before turning the bus around for reads
system.physmem.wrPerTurnAround::144-147             2      0.00%     99.98% # Writes before turning the bus around for reads
system.physmem.wrPerTurnAround::152-155             6      0.01%     99.99% # Writes before turning the bus around for reads
system.physmem.wrPerTurnAround::156-159             2      0.00%     99.99% # Writes before turning the bus around for reads
system.physmem.wrPerTurnAround::164-167             3      0.00%    100.00% # Writes before turning the bus around for reads
system.physmem.wrPerTurnAround::168-171             1      0.00%    100.00% # Writes before turning the bus around for reads
system.physmem.wrPerTurnAround::236-239             2      0.00%    100.00% # Writes before turning the bus around for reads
system.physmem.wrPerTurnAround::total           78027                       # Writes before turning the bus around for reads
system.physmem.totQLat                    82234419314                       # Total ticks spent queuing
system.physmem.totMemAccLat              113295181814                       # Total ticks spent from burst creation until serviced by the DRAM
system.physmem.totBusLat                   8282870000                       # Total ticks spent in databus transfers
system.physmem.avgQLat                       49641.26                       # Average queueing delay per DRAM burst
system.physmem.avgBusLat                      5000.00                       # Average bus latency per DRAM burst
system.physmem.avgMemAccLat                  68391.26                       # Average memory access latency per DRAM burst
system.physmem.avgRdBW                           2.24                       # Average DRAM read bandwidth in MiByte/s
system.physmem.avgWrBW                           1.85                       # Average achieved write bandwidth in MiByte/s
system.physmem.avgRdBWSys                        2.22                       # Average system read bandwidth in MiByte/s
system.physmem.avgWrBWSys                        1.85                       # Average system write bandwidth in MiByte/s
system.physmem.peakBW                        12800.00                       # Theoretical peak bandwidth in MiByte/s
system.physmem.busUtil                           0.03                       # Data bus utilization in percentage
system.physmem.busUtilRead                       0.02                       # Data bus utilization in percentage for reads
system.physmem.busUtilWrite                      0.01                       # Data bus utilization in percentage for writes
system.physmem.avgRdQLen                         1.27                       # Average read queue length when enqueuing
system.physmem.avgWrQLen                        24.73                       # Average write queue length when enqueuing
system.physmem.readRowHits                    1332435                       # Number of row buffer hits during reads
system.physmem.writeRowHits                    649185                       # Number of row buffer hits during writes
system.physmem.readRowHitRate                   80.43                       # Row buffer hit rate for reads
system.physmem.writeRowHitRate                  47.33                       # Row buffer hit rate for writes
system.physmem.avgGap                     15637234.88                       # Average gap between requests
system.physmem.pageHitRate                      65.44                       # Row buffer hit rate, read and write combined
system.physmem_0.actEnergy                 4004169120                       # Energy for activate commands per rank (pJ)
system.physmem_0.preEnergy                 2184814500                       # Energy for precharge commands per rank (pJ)
system.physmem_0.readEnergy                6475833000                       # Energy for read commands per rank (pJ)
system.physmem_0.writeEnergy               4480207200                       # Energy for write commands per rank (pJ)
system.physmem_0.refreshEnergy           3095622519600                       # Energy for refresh commands per rank (pJ)
system.physmem_0.actBackEnergy           1180796903550                       # Energy for active background per rank (pJ)
system.physmem_0.preBackEnergy           27401319159750                       # Energy for precharge background per rank (pJ)
system.physmem_0.totalEnergy             31694883606720                       # Total energy per rank (pJ)
system.physmem_0.averagePower              668.736482                       # Core power per rank (mW)
system.physmem_0.memoryStateTime::IDLE   45584100048214                       # Time in different power states
system.physmem_0.memoryStateTime::REF    1582629100000                       # Time in different power states
system.physmem_0.memoryStateTime::PRE_PDN            0                       # Time in different power states
system.physmem_0.memoryStateTime::ACT    228448334286                       # Time in different power states
system.physmem_0.memoryStateTime::ACT_PDN            0                       # Time in different power states
system.physmem_1.actEnergy                 3907869840                       # Energy for activate commands per rank (pJ)
system.physmem_1.preEnergy                 2132270250                       # Energy for precharge commands per rank (pJ)
system.physmem_1.readEnergy                6445397400                       # Energy for read commands per rank (pJ)
system.physmem_1.writeEnergy               4407851520                       # Energy for write commands per rank (pJ)
system.physmem_1.refreshEnergy           3095622519600                       # Energy for refresh commands per rank (pJ)
system.physmem_1.actBackEnergy           1181668397355                       # Energy for active background per rank (pJ)
system.physmem_1.preBackEnergy           27400554691500                       # Energy for precharge background per rank (pJ)
system.physmem_1.totalEnergy             31694738997465                       # Total energy per rank (pJ)
system.physmem_1.averagePower              668.733431                       # Core power per rank (mW)
system.physmem_1.memoryStateTime::IDLE   45582807436264                       # Time in different power states
system.physmem_1.memoryStateTime::REF    1582629100000                       # Time in different power states
system.physmem_1.memoryStateTime::PRE_PDN            0                       # Time in different power states
system.physmem_1.memoryStateTime::ACT    229740006236                       # Time in different power states
system.physmem_1.memoryStateTime::ACT_PDN            0                       # Time in different power states
system.realview.nvmem.bytes_read::cpu0.inst          384                       # Number of bytes read from this memory
system.realview.nvmem.bytes_read::cpu0.data           36                       # Number of bytes read from this memory
system.realview.nvmem.bytes_read::cpu1.inst          144                       # Number of bytes read from this memory
system.realview.nvmem.bytes_read::cpu1.data            8                       # Number of bytes read from this memory
system.realview.nvmem.bytes_read::total           572                       # Number of bytes read from this memory
system.realview.nvmem.bytes_inst_read::cpu0.inst          384                       # Number of instructions bytes read from this memory
system.realview.nvmem.bytes_inst_read::cpu1.inst          144                       # Number of instructions bytes read from this memory
system.realview.nvmem.bytes_inst_read::total          528                       # Number of instructions bytes read from this memory
system.realview.nvmem.num_reads::cpu0.inst           24                       # Number of read requests responded to by this memory
system.realview.nvmem.num_reads::cpu0.data            5                       # Number of read requests responded to by this memory
system.realview.nvmem.num_reads::cpu1.inst            9                       # Number of read requests responded to by this memory
system.realview.nvmem.num_reads::cpu1.data            1                       # Number of read requests responded to by this memory
system.realview.nvmem.num_reads::total             39                       # Number of read requests responded to by this memory
system.realview.nvmem.bw_read::cpu0.inst            8                       # Total read bandwidth from this memory (bytes/s)
system.realview.nvmem.bw_read::cpu0.data            1                       # Total read bandwidth from this memory (bytes/s)
system.realview.nvmem.bw_read::cpu1.inst            3                       # Total read bandwidth from this memory (bytes/s)
system.realview.nvmem.bw_read::cpu1.data            0                       # Total read bandwidth from this memory (bytes/s)
system.realview.nvmem.bw_read::total               12                       # Total read bandwidth from this memory (bytes/s)
system.realview.nvmem.bw_inst_read::cpu0.inst            8                       # Instruction read bandwidth from this memory (bytes/s)
system.realview.nvmem.bw_inst_read::cpu1.inst            3                       # Instruction read bandwidth from this memory (bytes/s)
system.realview.nvmem.bw_inst_read::total           11                       # Instruction read bandwidth from this memory (bytes/s)
system.realview.nvmem.bw_total::cpu0.inst            8                       # Total bandwidth to/from this memory (bytes/s)
system.realview.nvmem.bw_total::cpu0.data            1                       # Total bandwidth to/from this memory (bytes/s)
system.realview.nvmem.bw_total::cpu1.inst            3                       # Total bandwidth to/from this memory (bytes/s)
system.realview.nvmem.bw_total::cpu1.data            0                       # Total bandwidth to/from this memory (bytes/s)
system.realview.nvmem.bw_total::total              12                       # Total bandwidth to/from this memory (bytes/s)
system.cf0.dma_read_full_pages                    122                       # Number of full page size DMA reads (not PRD).
system.cf0.dma_read_bytes                      499712                       # Number of bytes transfered via DMA reads (not PRD).
system.cf0.dma_read_txs                           122                       # Number of DMA read transactions (not PRD).
system.cf0.dma_write_full_pages                  1667                       # Number of full page size DMA writes.
system.cf0.dma_write_bytes                    6830592                       # Number of bytes transfered via DMA writes.
system.cf0.dma_write_txs                         1670                       # Number of DMA write transactions.
system.cpu0.branchPred.lookups              146971248                       # Number of BP lookups
system.cpu0.branchPred.condPredicted         97492286                       # Number of conditional branches predicted
system.cpu0.branchPred.condIncorrect          7372479                       # Number of conditional branches incorrect
system.cpu0.branchPred.BTBLookups           103605243                       # Number of BTB lookups
system.cpu0.branchPred.BTBHits               68020426                       # Number of BTB hits
system.cpu0.branchPred.BTBCorrect                   0                       # Number of correct BTB predictions (this stat may not work properly.
system.cpu0.branchPred.BTBHitPct            65.653459                       # BTB Hit Percentage
system.cpu0.branchPred.usedRAS               20148210                       # Number of times the RAS was used to get a target.
system.cpu0.branchPred.RASInCorrect            220615                       # Number of incorrect RAS predictions.
system.cpu_clk_domain.clock                       500                       # Clock period in ticks
system.cpu0.dstage2_mmu.stage2_tlb.walker.walks            0                       # Table walker walks requested
system.cpu0.dstage2_mmu.stage2_tlb.walker.walkRequestOrigin_Requested::Data            0                       # Table walker requests started/completed, data/inst
system.cpu0.dstage2_mmu.stage2_tlb.walker.walkRequestOrigin_Requested::Inst            0                       # Table walker requests started/completed, data/inst
system.cpu0.dstage2_mmu.stage2_tlb.walker.walkRequestOrigin_Requested::total            0                       # Table walker requests started/completed, data/inst
system.cpu0.dstage2_mmu.stage2_tlb.walker.walkRequestOrigin_Completed::Data            0                       # Table walker requests started/completed, data/inst
system.cpu0.dstage2_mmu.stage2_tlb.walker.walkRequestOrigin_Completed::Inst            0                       # Table walker requests started/completed, data/inst
system.cpu0.dstage2_mmu.stage2_tlb.walker.walkRequestOrigin_Completed::total            0                       # Table walker requests started/completed, data/inst
system.cpu0.dstage2_mmu.stage2_tlb.walker.walkRequestOrigin::total            0                       # Table walker requests started/completed, data/inst
system.cpu0.dstage2_mmu.stage2_tlb.inst_hits            0                       # ITB inst hits
system.cpu0.dstage2_mmu.stage2_tlb.inst_misses            0                       # ITB inst misses
system.cpu0.dstage2_mmu.stage2_tlb.read_hits            0                       # DTB read hits
system.cpu0.dstage2_mmu.stage2_tlb.read_misses            0                       # DTB read misses
system.cpu0.dstage2_mmu.stage2_tlb.write_hits            0                       # DTB write hits
system.cpu0.dstage2_mmu.stage2_tlb.write_misses            0                       # DTB write misses
system.cpu0.dstage2_mmu.stage2_tlb.flush_tlb            0                       # Number of times complete TLB was flushed
system.cpu0.dstage2_mmu.stage2_tlb.flush_tlb_mva            0                       # Number of times TLB was flushed by MVA
system.cpu0.dstage2_mmu.stage2_tlb.flush_tlb_mva_asid            0                       # Number of times TLB was flushed by MVA & ASID
system.cpu0.dstage2_mmu.stage2_tlb.flush_tlb_asid            0                       # Number of times TLB was flushed by ASID
system.cpu0.dstage2_mmu.stage2_tlb.flush_entries            0                       # Number of entries that have been flushed from TLB
system.cpu0.dstage2_mmu.stage2_tlb.align_faults            0                       # Number of TLB faults due to alignment restrictions
system.cpu0.dstage2_mmu.stage2_tlb.prefetch_faults            0                       # Number of TLB faults due to prefetch
system.cpu0.dstage2_mmu.stage2_tlb.domain_faults            0                       # Number of TLB faults due to domain restrictions
system.cpu0.dstage2_mmu.stage2_tlb.perms_faults            0                       # Number of TLB faults due to permissions restrictions
system.cpu0.dstage2_mmu.stage2_tlb.read_accesses            0                       # DTB read accesses
system.cpu0.dstage2_mmu.stage2_tlb.write_accesses            0                       # DTB write accesses
system.cpu0.dstage2_mmu.stage2_tlb.inst_accesses            0                       # ITB inst accesses
system.cpu0.dstage2_mmu.stage2_tlb.hits             0                       # DTB hits
system.cpu0.dstage2_mmu.stage2_tlb.misses            0                       # DTB misses
system.cpu0.dstage2_mmu.stage2_tlb.accesses            0                       # DTB accesses
system.cpu0.dtb.walker.walks                   621589                       # Table walker walks requested
system.cpu0.dtb.walker.walksLong               621589                       # Table walker walks initiated with long descriptors
system.cpu0.dtb.walker.walksLongTerminationLevel::Level2        13120                       # Level at which table walker walks with long descriptors terminate
system.cpu0.dtb.walker.walksLongTerminationLevel::Level3        97816                       # Level at which table walker walks with long descriptors terminate
system.cpu0.dtb.walker.walksSquashedBefore       286624                       # Table walks squashed before starting
system.cpu0.dtb.walker.walkWaitTime::samples       334965                       # Table walker wait (enqueue to first request) latency
system.cpu0.dtb.walker.walkWaitTime::mean  2330.974878                       # Table walker wait (enqueue to first request) latency
system.cpu0.dtb.walker.walkWaitTime::stdev 14719.833023                       # Table walker wait (enqueue to first request) latency
system.cpu0.dtb.walker.walkWaitTime::0-65535       332297     99.20%     99.20% # Table walker wait (enqueue to first request) latency
system.cpu0.dtb.walker.walkWaitTime::65536-131071         1432      0.43%     99.63% # Table walker wait (enqueue to first request) latency
system.cpu0.dtb.walker.walkWaitTime::131072-196607          943      0.28%     99.91% # Table walker wait (enqueue to first request) latency
system.cpu0.dtb.walker.walkWaitTime::196608-262143          131      0.04%     99.95% # Table walker wait (enqueue to first request) latency
system.cpu0.dtb.walker.walkWaitTime::262144-327679           57      0.02%     99.97% # Table walker wait (enqueue to first request) latency
system.cpu0.dtb.walker.walkWaitTime::327680-393215           84      0.03%     99.99% # Table walker wait (enqueue to first request) latency
system.cpu0.dtb.walker.walkWaitTime::393216-458751           13      0.00%    100.00% # Table walker wait (enqueue to first request) latency
system.cpu0.dtb.walker.walkWaitTime::458752-524287            2      0.00%    100.00% # Table walker wait (enqueue to first request) latency
system.cpu0.dtb.walker.walkWaitTime::524288-589823            4      0.00%    100.00% # Table walker wait (enqueue to first request) latency
system.cpu0.dtb.walker.walkWaitTime::589824-655359            1      0.00%    100.00% # Table walker wait (enqueue to first request) latency
system.cpu0.dtb.walker.walkWaitTime::720896-786431            1      0.00%    100.00% # Table walker wait (enqueue to first request) latency
system.cpu0.dtb.walker.walkWaitTime::total       334965                       # Table walker wait (enqueue to first request) latency
system.cpu0.dtb.walker.walkCompletionTime::samples       317874                       # Table walker service (enqueue to completion) latency
system.cpu0.dtb.walker.walkCompletionTime::mean 20050.667875                       # Table walker service (enqueue to completion) latency
system.cpu0.dtb.walker.walkCompletionTime::gmean 16636.288203                       # Table walker service (enqueue to completion) latency
system.cpu0.dtb.walker.walkCompletionTime::stdev 22186.320011                       # Table walker service (enqueue to completion) latency
system.cpu0.dtb.walker.walkCompletionTime::0-65535       314157     98.83%     98.83% # Table walker service (enqueue to completion) latency
system.cpu0.dtb.walker.walkCompletionTime::65536-131071          825      0.26%     99.09% # Table walker service (enqueue to completion) latency
system.cpu0.dtb.walker.walkCompletionTime::131072-196607         2043      0.64%     99.73% # Table walker service (enqueue to completion) latency
system.cpu0.dtb.walker.walkCompletionTime::196608-262143          147      0.05%     99.78% # Table walker service (enqueue to completion) latency
system.cpu0.dtb.walker.walkCompletionTime::262144-327679          407      0.13%     99.91% # Table walker service (enqueue to completion) latency
system.cpu0.dtb.walker.walkCompletionTime::327680-393215          108      0.03%     99.94% # Table walker service (enqueue to completion) latency
system.cpu0.dtb.walker.walkCompletionTime::393216-458751          100      0.03%     99.97% # Table walker service (enqueue to completion) latency
system.cpu0.dtb.walker.walkCompletionTime::458752-524287           42      0.01%     99.99% # Table walker service (enqueue to completion) latency
system.cpu0.dtb.walker.walkCompletionTime::524288-589823           23      0.01%     99.99% # Table walker service (enqueue to completion) latency
system.cpu0.dtb.walker.walkCompletionTime::589824-655359           13      0.00%    100.00% # Table walker service (enqueue to completion) latency
system.cpu0.dtb.walker.walkCompletionTime::655360-720895            4      0.00%    100.00% # Table walker service (enqueue to completion) latency
system.cpu0.dtb.walker.walkCompletionTime::720896-786431            5      0.00%    100.00% # Table walker service (enqueue to completion) latency
system.cpu0.dtb.walker.walkCompletionTime::total       317874                       # Table walker service (enqueue to completion) latency
system.cpu0.dtb.walker.walksPending::samples 575732613804                       # Table walker pending requests distribution
system.cpu0.dtb.walker.walksPending::mean     0.609948                       # Table walker pending requests distribution
system.cpu0.dtb.walker.walksPending::stdev     0.538779                       # Table walker pending requests distribution
system.cpu0.dtb.walker.walksPending::0-1 574368413804     99.76%     99.76% # Table walker pending requests distribution
system.cpu0.dtb.walker.walksPending::2-3    774580000      0.13%     99.90% # Table walker pending requests distribution
system.cpu0.dtb.walker.walksPending::4-5    276702000      0.05%     99.95% # Table walker pending requests distribution
system.cpu0.dtb.walker.walksPending::6-7    125012500      0.02%     99.97% # Table walker pending requests distribution
system.cpu0.dtb.walker.walksPending::8-9     99386000      0.02%     99.98% # Table walker pending requests distribution
system.cpu0.dtb.walker.walksPending::10-11     49877000      0.01%     99.99% # Table walker pending requests distribution
system.cpu0.dtb.walker.walksPending::12-13     16787500      0.00%    100.00% # Table walker pending requests distribution
system.cpu0.dtb.walker.walksPending::14-15     21052000      0.00%    100.00% # Table walker pending requests distribution
system.cpu0.dtb.walker.walksPending::16-17       785500      0.00%    100.00% # Table walker pending requests distribution
system.cpu0.dtb.walker.walksPending::18-19        17500      0.00%    100.00% # Table walker pending requests distribution
system.cpu0.dtb.walker.walksPending::total 575732613804                       # Table walker pending requests distribution
system.cpu0.dtb.walker.walkPageSizes::4K        97816     88.17%     88.17% # Table walker page sizes translated
system.cpu0.dtb.walker.walkPageSizes::2M        13120     11.83%    100.00% # Table walker page sizes translated
system.cpu0.dtb.walker.walkPageSizes::total       110936                       # Table walker page sizes translated
system.cpu0.dtb.walker.walkRequestOrigin_Requested::Data       621589                       # Table walker requests started/completed, data/inst
system.cpu0.dtb.walker.walkRequestOrigin_Requested::Inst            0                       # Table walker requests started/completed, data/inst
system.cpu0.dtb.walker.walkRequestOrigin_Requested::total       621589                       # Table walker requests started/completed, data/inst
system.cpu0.dtb.walker.walkRequestOrigin_Completed::Data       110936                       # Table walker requests started/completed, data/inst
system.cpu0.dtb.walker.walkRequestOrigin_Completed::Inst            0                       # Table walker requests started/completed, data/inst
system.cpu0.dtb.walker.walkRequestOrigin_Completed::total       110936                       # Table walker requests started/completed, data/inst
system.cpu0.dtb.walker.walkRequestOrigin::total       732525                       # Table walker requests started/completed, data/inst
system.cpu0.dtb.inst_hits                           0                       # ITB inst hits
system.cpu0.dtb.inst_misses                         0                       # ITB inst misses
system.cpu0.dtb.read_hits                   106854280                       # DTB read hits
system.cpu0.dtb.read_misses                    451291                       # DTB read misses
system.cpu0.dtb.write_hits                   87452638                       # DTB write hits
system.cpu0.dtb.write_misses                   170298                       # DTB write misses
system.cpu0.dtb.flush_tlb                          14                       # Number of times complete TLB was flushed
system.cpu0.dtb.flush_tlb_mva                       0                       # Number of times TLB was flushed by MVA
system.cpu0.dtb.flush_tlb_mva_asid              44894                       # Number of times TLB was flushed by MVA & ASID
system.cpu0.dtb.flush_tlb_asid                   1069                       # Number of times TLB was flushed by ASID
system.cpu0.dtb.flush_entries                   41576                       # Number of entries that have been flushed from TLB
system.cpu0.dtb.align_faults                      658                       # Number of TLB faults due to alignment restrictions
system.cpu0.dtb.prefetch_faults                  7382                       # Number of TLB faults due to prefetch
system.cpu0.dtb.domain_faults                       0                       # Number of TLB faults due to domain restrictions
system.cpu0.dtb.perms_faults                    40291                       # Number of TLB faults due to permissions restrictions
system.cpu0.dtb.read_accesses               107305571                       # DTB read accesses
system.cpu0.dtb.write_accesses               87622936                       # DTB write accesses
system.cpu0.dtb.inst_accesses                       0                       # ITB inst accesses
system.cpu0.dtb.hits                        194306918                       # DTB hits
system.cpu0.dtb.misses                         621589                       # DTB misses
system.cpu0.dtb.accesses                    194928507                       # DTB accesses
system.cpu0.istage2_mmu.stage2_tlb.walker.walks            0                       # Table walker walks requested
system.cpu0.istage2_mmu.stage2_tlb.walker.walkRequestOrigin_Requested::Data            0                       # Table walker requests started/completed, data/inst
system.cpu0.istage2_mmu.stage2_tlb.walker.walkRequestOrigin_Requested::Inst            0                       # Table walker requests started/completed, data/inst
system.cpu0.istage2_mmu.stage2_tlb.walker.walkRequestOrigin_Requested::total            0                       # Table walker requests started/completed, data/inst
system.cpu0.istage2_mmu.stage2_tlb.walker.walkRequestOrigin_Completed::Data            0                       # Table walker requests started/completed, data/inst
system.cpu0.istage2_mmu.stage2_tlb.walker.walkRequestOrigin_Completed::Inst            0                       # Table walker requests started/completed, data/inst
system.cpu0.istage2_mmu.stage2_tlb.walker.walkRequestOrigin_Completed::total            0                       # Table walker requests started/completed, data/inst
system.cpu0.istage2_mmu.stage2_tlb.walker.walkRequestOrigin::total            0                       # Table walker requests started/completed, data/inst
system.cpu0.istage2_mmu.stage2_tlb.inst_hits            0                       # ITB inst hits
system.cpu0.istage2_mmu.stage2_tlb.inst_misses            0                       # ITB inst misses
system.cpu0.istage2_mmu.stage2_tlb.read_hits            0                       # DTB read hits
system.cpu0.istage2_mmu.stage2_tlb.read_misses            0                       # DTB read misses
system.cpu0.istage2_mmu.stage2_tlb.write_hits            0                       # DTB write hits
system.cpu0.istage2_mmu.stage2_tlb.write_misses            0                       # DTB write misses
system.cpu0.istage2_mmu.stage2_tlb.flush_tlb            0                       # Number of times complete TLB was flushed
system.cpu0.istage2_mmu.stage2_tlb.flush_tlb_mva            0                       # Number of times TLB was flushed by MVA
system.cpu0.istage2_mmu.stage2_tlb.flush_tlb_mva_asid            0                       # Number of times TLB was flushed by MVA & ASID
system.cpu0.istage2_mmu.stage2_tlb.flush_tlb_asid            0                       # Number of times TLB was flushed by ASID
system.cpu0.istage2_mmu.stage2_tlb.flush_entries            0                       # Number of entries that have been flushed from TLB
system.cpu0.istage2_mmu.stage2_tlb.align_faults            0                       # Number of TLB faults due to alignment restrictions
system.cpu0.istage2_mmu.stage2_tlb.prefetch_faults            0                       # Number of TLB faults due to prefetch
system.cpu0.istage2_mmu.stage2_tlb.domain_faults            0                       # Number of TLB faults due to domain restrictions
system.cpu0.istage2_mmu.stage2_tlb.perms_faults            0                       # Number of TLB faults due to permissions restrictions
system.cpu0.istage2_mmu.stage2_tlb.read_accesses            0                       # DTB read accesses
system.cpu0.istage2_mmu.stage2_tlb.write_accesses            0                       # DTB write accesses
system.cpu0.istage2_mmu.stage2_tlb.inst_accesses            0                       # ITB inst accesses
system.cpu0.istage2_mmu.stage2_tlb.hits             0                       # DTB hits
system.cpu0.istage2_mmu.stage2_tlb.misses            0                       # DTB misses
system.cpu0.istage2_mmu.stage2_tlb.accesses            0                       # DTB accesses
system.cpu0.itb.walker.walks                    88821                       # Table walker walks requested
system.cpu0.itb.walker.walksLong                88821                       # Table walker walks initiated with long descriptors
system.cpu0.itb.walker.walksLongTerminationLevel::Level2         1050                       # Level at which table walker walks with long descriptors terminate
system.cpu0.itb.walker.walksLongTerminationLevel::Level3        63713                       # Level at which table walker walks with long descriptors terminate
system.cpu0.itb.walker.walksSquashedBefore        10161                       # Table walks squashed before starting
system.cpu0.itb.walker.walkWaitTime::samples        78660                       # Table walker wait (enqueue to first request) latency
system.cpu0.itb.walker.walkWaitTime::mean  1640.999237                       # Table walker wait (enqueue to first request) latency
system.cpu0.itb.walker.walkWaitTime::stdev 13001.605750                       # Table walker wait (enqueue to first request) latency
system.cpu0.itb.walker.walkWaitTime::0-32767        77771     98.87%     98.87% # Table walker wait (enqueue to first request) latency
system.cpu0.itb.walker.walkWaitTime::32768-65535          446      0.57%     99.44% # Table walker wait (enqueue to first request) latency
system.cpu0.itb.walker.walkWaitTime::65536-98303           46      0.06%     99.50% # Table walker wait (enqueue to first request) latency
system.cpu0.itb.walker.walkWaitTime::98304-131071           60      0.08%     99.57% # Table walker wait (enqueue to first request) latency
system.cpu0.itb.walker.walkWaitTime::131072-163839          236      0.30%     99.87% # Table walker wait (enqueue to first request) latency
system.cpu0.itb.walker.walkWaitTime::163840-196607           63      0.08%     99.95% # Table walker wait (enqueue to first request) latency
system.cpu0.itb.walker.walkWaitTime::196608-229375            4      0.01%     99.96% # Table walker wait (enqueue to first request) latency
system.cpu0.itb.walker.walkWaitTime::229376-262143            4      0.01%     99.96% # Table walker wait (enqueue to first request) latency
system.cpu0.itb.walker.walkWaitTime::262144-294911           12      0.02%     99.98% # Table walker wait (enqueue to first request) latency
system.cpu0.itb.walker.walkWaitTime::294912-327679            4      0.01%     99.98% # Table walker wait (enqueue to first request) latency
system.cpu0.itb.walker.walkWaitTime::327680-360447            6      0.01%     99.99% # Table walker wait (enqueue to first request) latency
system.cpu0.itb.walker.walkWaitTime::360448-393215            3      0.00%     99.99% # Table walker wait (enqueue to first request) latency
system.cpu0.itb.walker.walkWaitTime::393216-425983            3      0.00%    100.00% # Table walker wait (enqueue to first request) latency
system.cpu0.itb.walker.walkWaitTime::425984-458751            1      0.00%    100.00% # Table walker wait (enqueue to first request) latency
system.cpu0.itb.walker.walkWaitTime::458752-491519            1      0.00%    100.00% # Table walker wait (enqueue to first request) latency
system.cpu0.itb.walker.walkWaitTime::total        78660                       # Table walker wait (enqueue to first request) latency
system.cpu0.itb.walker.walkCompletionTime::samples        74924                       # Table walker service (enqueue to completion) latency
system.cpu0.itb.walker.walkCompletionTime::mean 26158.080188                       # Table walker service (enqueue to completion) latency
system.cpu0.itb.walker.walkCompletionTime::gmean 21735.719179                       # Table walker service (enqueue to completion) latency
system.cpu0.itb.walker.walkCompletionTime::stdev 28586.196281                       # Table walker service (enqueue to completion) latency
system.cpu0.itb.walker.walkCompletionTime::0-65535        72785     97.15%     97.15% # Table walker service (enqueue to completion) latency
system.cpu0.itb.walker.walkCompletionTime::65536-131071          128      0.17%     97.32% # Table walker service (enqueue to completion) latency
system.cpu0.itb.walker.walkCompletionTime::131072-196607         1706      2.28%     99.59% # Table walker service (enqueue to completion) latency
system.cpu0.itb.walker.walkCompletionTime::196608-262143          120      0.16%     99.75% # Table walker service (enqueue to completion) latency
system.cpu0.itb.walker.walkCompletionTime::262144-327679          108      0.14%     99.90% # Table walker service (enqueue to completion) latency
system.cpu0.itb.walker.walkCompletionTime::327680-393215           38      0.05%     99.95% # Table walker service (enqueue to completion) latency
system.cpu0.itb.walker.walkCompletionTime::393216-458751           23      0.03%     99.98% # Table walker service (enqueue to completion) latency
system.cpu0.itb.walker.walkCompletionTime::458752-524287           11      0.01%     99.99% # Table walker service (enqueue to completion) latency
system.cpu0.itb.walker.walkCompletionTime::524288-589823            5      0.01%    100.00% # Table walker service (enqueue to completion) latency
system.cpu0.itb.walker.walkCompletionTime::total        74924                       # Table walker service (enqueue to completion) latency
system.cpu0.itb.walker.walksPending::samples 438261516832                       # Table walker pending requests distribution
system.cpu0.itb.walker.walksPending::mean     0.857100                       # Table walker pending requests distribution
system.cpu0.itb.walker.walksPending::stdev     0.350244                       # Table walker pending requests distribution
system.cpu0.itb.walker.walksPending::0    62664607652     14.30%     14.30% # Table walker pending requests distribution
system.cpu0.itb.walker.walksPending::1   375564750680     85.69%     99.99% # Table walker pending requests distribution
system.cpu0.itb.walker.walksPending::2       27774000      0.01%    100.00% # Table walker pending requests distribution
system.cpu0.itb.walker.walksPending::3        4139500      0.00%    100.00% # Table walker pending requests distribution
system.cpu0.itb.walker.walksPending::4         188000      0.00%    100.00% # Table walker pending requests distribution
system.cpu0.itb.walker.walksPending::5          57000      0.00%    100.00% # Table walker pending requests distribution
system.cpu0.itb.walker.walksPending::total 438261516832                       # Table walker pending requests distribution
system.cpu0.itb.walker.walkPageSizes::4K        63713     98.38%     98.38% # Table walker page sizes translated
system.cpu0.itb.walker.walkPageSizes::2M         1050      1.62%    100.00% # Table walker page sizes translated
system.cpu0.itb.walker.walkPageSizes::total        64763                       # Table walker page sizes translated
system.cpu0.itb.walker.walkRequestOrigin_Requested::Data            0                       # Table walker requests started/completed, data/inst
system.cpu0.itb.walker.walkRequestOrigin_Requested::Inst        88821                       # Table walker requests started/completed, data/inst
system.cpu0.itb.walker.walkRequestOrigin_Requested::total        88821                       # Table walker requests started/completed, data/inst
system.cpu0.itb.walker.walkRequestOrigin_Completed::Data            0                       # Table walker requests started/completed, data/inst
system.cpu0.itb.walker.walkRequestOrigin_Completed::Inst        64763                       # Table walker requests started/completed, data/inst
system.cpu0.itb.walker.walkRequestOrigin_Completed::total        64763                       # Table walker requests started/completed, data/inst
system.cpu0.itb.walker.walkRequestOrigin::total       153584                       # Table walker requests started/completed, data/inst
system.cpu0.itb.inst_hits                   231690538                       # ITB inst hits
system.cpu0.itb.inst_misses                     88821                       # ITB inst misses
system.cpu0.itb.read_hits                           0                       # DTB read hits
system.cpu0.itb.read_misses                         0                       # DTB read misses
system.cpu0.itb.write_hits                          0                       # DTB write hits
system.cpu0.itb.write_misses                        0                       # DTB write misses
system.cpu0.itb.flush_tlb                          14                       # Number of times complete TLB was flushed
system.cpu0.itb.flush_tlb_mva                       0                       # Number of times TLB was flushed by MVA
system.cpu0.itb.flush_tlb_mva_asid              44894                       # Number of times TLB was flushed by MVA & ASID
system.cpu0.itb.flush_tlb_asid                   1069                       # Number of times TLB was flushed by ASID
system.cpu0.itb.flush_entries                   30101                       # Number of entries that have been flushed from TLB
system.cpu0.itb.align_faults                        0                       # Number of TLB faults due to alignment restrictions
system.cpu0.itb.prefetch_faults                     0                       # Number of TLB faults due to prefetch
system.cpu0.itb.domain_faults                       0                       # Number of TLB faults due to domain restrictions
system.cpu0.itb.perms_faults                   229340                       # Number of TLB faults due to permissions restrictions
system.cpu0.itb.read_accesses                       0                       # DTB read accesses
system.cpu0.itb.write_accesses                      0                       # DTB write accesses
system.cpu0.itb.inst_accesses               231779359                       # ITB inst accesses
system.cpu0.itb.hits                        231690538                       # DTB hits
system.cpu0.itb.misses                          88821                       # DTB misses
system.cpu0.itb.accesses                    231779359                       # DTB accesses
system.cpu0.numCycles                       863793222                       # number of cpu cycles simulated
system.cpu0.numWorkItemsStarted                     0                       # number of work items this cpu started
system.cpu0.numWorkItemsCompleted                   0                       # number of work items this cpu completed
system.cpu0.fetch.icacheStallCycles          99193613                       # Number of cycles fetch is stalled on an Icache miss
system.cpu0.fetch.Insts                     650316460                       # Number of instructions fetch has processed
system.cpu0.fetch.Branches                  146971248                       # Number of branches that fetch encountered
system.cpu0.fetch.predictedBranches          88168636                       # Number of branches that fetch has predicted taken
system.cpu0.fetch.Cycles                    710473999                       # Number of cycles fetch has run and was not squashing or blocked
system.cpu0.fetch.SquashCycles               15870286                       # Number of cycles fetch has spent squashing
system.cpu0.fetch.TlbCycles                   2085677                       # Number of cycles fetch has spent waiting for tlb
system.cpu0.fetch.MiscStallCycles              375453                       # Number of cycles fetch has spent waiting on interrupts, or bad addresses, or out of MSHRs
system.cpu0.fetch.PendingTrapStallCycles      6582690                       # Number of stall cycles due to pending traps
system.cpu0.fetch.PendingQuiesceStallCycles       821108                       # Number of stall cycles due to pending quiesce instructions
system.cpu0.fetch.IcacheWaitRetryStallCycles       973136                       # Number of stall cycles due to full MSHR
system.cpu0.fetch.CacheLines                231460528                       # Number of cache lines fetched
system.cpu0.fetch.IcacheSquashes              1900058                       # Number of outstanding Icache misses that were squashed
system.cpu0.fetch.ItlbSquashes                  29560                       # Number of outstanding ITLB misses that were squashed
system.cpu0.fetch.rateDist::samples         828440819                       # Number of instructions fetched each cycle (Total)
system.cpu0.fetch.rateDist::mean             0.919217                       # Number of instructions fetched each cycle (Total)
system.cpu0.fetch.rateDist::stdev            1.204961                       # Number of instructions fetched each cycle (Total)
system.cpu0.fetch.rateDist::underflows              0      0.00%      0.00% # Number of instructions fetched each cycle (Total)
system.cpu0.fetch.rateDist::0               463819781     55.99%     55.99% # Number of instructions fetched each cycle (Total)
system.cpu0.fetch.rateDist::1               141489715     17.08%     73.07% # Number of instructions fetched each cycle (Total)
system.cpu0.fetch.rateDist::2                49366419      5.96%     79.03% # Number of instructions fetched each cycle (Total)
system.cpu0.fetch.rateDist::3               173764904     20.97%    100.00% # Number of instructions fetched each cycle (Total)
system.cpu0.fetch.rateDist::overflows               0      0.00%    100.00% # Number of instructions fetched each cycle (Total)
system.cpu0.fetch.rateDist::min_value               0                       # Number of instructions fetched each cycle (Total)
system.cpu0.fetch.rateDist::max_value               3                       # Number of instructions fetched each cycle (Total)
system.cpu0.fetch.rateDist::total           828440819                       # Number of instructions fetched each cycle (Total)
system.cpu0.fetch.branchRate                 0.170146                       # Number of branch fetches per cycle
system.cpu0.fetch.rate                       0.752861                       # Number of inst fetches per cycle
system.cpu0.decode.IdleCycles               116939951                       # Number of cycles decode is idle
system.cpu0.decode.BlockedCycles            422028211                       # Number of cycles decode is blocked
system.cpu0.decode.RunCycles                244586455                       # Number of cycles decode is running
system.cpu0.decode.UnblockCycles             39268558                       # Number of cycles decode is unblocking
system.cpu0.decode.SquashCycles               5617644                       # Number of cycles decode is squashing
system.cpu0.decode.BranchResolved            21189817                       # Number of times decode resolved a branch
system.cpu0.decode.BranchMispred              2362286                       # Number of times decode detected a branch misprediction
system.cpu0.decode.DecodedInsts             672848975                       # Number of instructions handled by decode
system.cpu0.decode.SquashedInsts             25418616                       # Number of squashed instructions handled by decode
system.cpu0.rename.SquashCycles               5617644                       # Number of cycles rename is squashing
[...]
system.l2c.ReadReq_avg_mshr_uncacheable_latency::cpu1.data 74922.726391                       # average ReadReq mshr uncacheable latency
system.l2c.ReadReq_avg_mshr_uncacheable_latency::total 132599.588326                       # average ReadReq mshr uncacheable latency
system.l2c.WriteReq_avg_mshr_uncacheable_latency::cpu0.data 153294.552702                       # average WriteReq mshr uncacheable latency
system.l2c.WriteReq_avg_mshr_uncacheable_latency::cpu1.data 88074.559607                       # average WriteReq mshr uncacheable latency
system.l2c.WriteReq_avg_mshr_uncacheable_latency::total 144978.309426                       # average WriteReq mshr uncacheable latency
system.l2c.overall_avg_mshr_uncacheable_latency::cpu0.inst 112554.099746                       # average overall mshr uncacheable latency
system.l2c.overall_avg_mshr_uncacheable_latency::cpu0.data 153866.490599                       # average overall mshr uncacheable latency
system.l2c.overall_avg_mshr_uncacheable_latency::cpu1.inst 107425.373134                       # average overall mshr uncacheable latency
system.l2c.overall_avg_mshr_uncacheable_latency::cpu1.data 81318.507820                       # average overall mshr uncacheable latency
system.l2c.overall_avg_mshr_uncacheable_latency::total 137433.631498                       # average overall mshr uncacheable latency
system.l2c.no_allocate_misses                       0                       # Number of misses that were no-allocate
system.membus.trans_dist::ReadReq               59756                       # Transaction distribution
system.membus.trans_dist::ReadResp            1037606                       # Transaction distribution
system.membus.trans_dist::WriteReq              38287                       # Transaction distribution
system.membus.trans_dist::WriteResp             38287                       # Transaction distribution
system.membus.trans_dist::Writeback           1371305                       # Transaction distribution
system.membus.trans_dist::CleanEvict           262648                       # Transaction distribution
system.membus.trans_dist::UpgradeReq           440849                       # Transaction distribution
system.membus.trans_dist::SCUpgradeReq         306045                       # Transaction distribution
system.membus.trans_dist::UpgradeResp          117782                       # Transaction distribution
system.membus.trans_dist::SCUpgradeFailReq            3                       # Transaction distribution
system.membus.trans_dist::ReadExReq            681386                       # Transaction distribution
system.membus.trans_dist::ReadExResp           660425                       # Transaction distribution
system.membus.trans_dist::ReadSharedReq        977850                       # Transaction distribution
system.membus.trans_dist::InvalidateReq        106728                       # Transaction distribution
system.membus.trans_dist::InvalidateResp       106728                       # Transaction distribution
system.membus.pkt_count_system.l2c.mem_side::system.bridge.slave       122826                       # Packet count per connected master and slave (bytes)
system.membus.pkt_count_system.l2c.mem_side::system.realview.nvmem.port           78                       # Packet count per connected master and slave (bytes)
system.membus.pkt_count_system.l2c.mem_side::system.realview.gic.pio        25318                       # Packet count per connected master and slave (bytes)
system.membus.pkt_count_system.l2c.mem_side::system.physmem.port      5711814                       # Packet count per connected master and slave (bytes)
system.membus.pkt_count_system.l2c.mem_side::total      5860036                       # Packet count per connected master and slave (bytes)
system.membus.pkt_count_system.iocache.mem_side::system.physmem.port       343033                       # Packet count per connected master and slave (bytes)
system.membus.pkt_count_system.iocache.mem_side::total       343033                       # Packet count per connected master and slave (bytes)
system.membus.pkt_count::total                6203069                       # Packet count per connected master and slave (bytes)
system.membus.pkt_size_system.l2c.mem_side::system.bridge.slave       155933                       # Cumulative packet size per connected master and slave (bytes)
system.membus.pkt_size_system.l2c.mem_side::system.realview.nvmem.port          572                       # Cumulative packet size per connected master and slave (bytes)
system.membus.pkt_size_system.l2c.mem_side::system.realview.gic.pio        50636                       # Cumulative packet size per connected master and slave (bytes)
system.membus.pkt_size_system.l2c.mem_side::system.physmem.port    185527680                       # Cumulative packet size per connected master and slave (bytes)
system.membus.pkt_size_system.l2c.mem_side::total    185734821                       # Cumulative packet size per connected master and slave (bytes)
system.membus.pkt_size_system.iocache.mem_side::system.physmem.port      7281536                       # Cumulative packet size per connected master and slave (bytes)
system.membus.pkt_size_system.iocache.mem_side::total      7281536                       # Cumulative packet size per connected master and slave (bytes)
system.membus.pkt_size::total               193016357                       # Cumulative packet size per connected master and slave (bytes)
system.membus.snoops                           652692                       # Total snoops (count)
system.membus.snoop_fanout::samples           4246933                       # Request fanout histogram
system.membus.snoop_fanout::mean                    1                       # Request fanout histogram
system.membus.snoop_fanout::stdev                   0                       # Request fanout histogram
system.membus.snoop_fanout::underflows              0      0.00%      0.00% # Request fanout histogram
system.membus.snoop_fanout::0                       0      0.00%      0.00% # Request fanout histogram
system.membus.snoop_fanout::1                 4246933    100.00%    100.00% # Request fanout histogram
system.membus.snoop_fanout::2                       0      0.00%    100.00% # Request fanout histogram
system.membus.snoop_fanout::overflows               0      0.00%    100.00% # Request fanout histogram
system.membus.snoop_fanout::min_value               1                       # Request fanout histogram
system.membus.snoop_fanout::max_value               1                       # Request fanout histogram
system.membus.snoop_fanout::total             4246933                       # Request fanout histogram
system.membus.reqLayer0.occupancy            98658999                       # Layer occupancy (ticks)
system.membus.reqLayer0.utilization               0.0                       # Layer utilization (%)
system.membus.reqLayer1.occupancy               54500                       # Layer occupancy (ticks)
system.membus.reqLayer1.utilization               0.0                       # Layer utilization (%)
system.membus.reqLayer2.occupancy            21380469                       # Layer occupancy (ticks)
system.membus.reqLayer2.utilization               0.0                       # Layer utilization (%)
system.membus.reqLayer5.occupancy          9518454911                       # Layer occupancy (ticks)
system.membus.reqLayer5.utilization               0.0                       # Layer utilization (%)
system.membus.respLayer2.occupancy         8904498116                       # Layer occupancy (ticks)
system.membus.respLayer2.utilization              0.0                       # Layer utilization (%)
system.membus.respLayer3.occupancy          230513312                       # Layer occupancy (ticks)
system.membus.respLayer3.utilization              0.0                       # Layer utilization (%)
system.realview.ethernet.txBytes                  966                       # Bytes Transmitted
system.realview.ethernet.txPackets                  3                       # Number of Packets Transmitted
system.realview.ethernet.txIpChecksums              0                       # Number of tx IP Checksums done by device
system.realview.ethernet.txTcpChecksums             0                       # Number of tx TCP Checksums done by device
system.realview.ethernet.txUdpChecksums             0                       # Number of tx UDP Checksums done by device
system.realview.ethernet.descDMAReads               0                       # Number of descriptors the device read w/ DMA
system.realview.ethernet.descDMAWrites              0                       # Number of descriptors the device wrote w/ DMA
system.realview.ethernet.descDmaReadBytes            0                       # number of descriptor bytes read w/ DMA
system.realview.ethernet.descDmaWriteBytes            0                       # number of descriptor bytes write w/ DMA
system.realview.ethernet.totBandwidth             163                       # Total Bandwidth (bits/s)
system.realview.ethernet.totPackets                 3                       # Total Packets
system.realview.ethernet.totBytes                 966                       # Total Bytes
system.realview.ethernet.totPPS                     0                       # Total Tranmission Rate (packets/s)
system.realview.ethernet.txBandwidth              163                       # Transmit Bandwidth (bits/s)
system.realview.ethernet.txPPS                      0                       # Packet Tranmission Rate (packets/s)
system.realview.ethernet.postedSwi                  0                       # number of software interrupts posted to CPU
system.realview.ethernet.coalescedSwi               0                       # average number of Swi's coalesced into each post
system.realview.ethernet.totalSwi                   0                       # total number of Swi written to ISR
system.realview.ethernet.postedRxIdle               0                       # number of rxIdle interrupts posted to CPU
system.realview.ethernet.coalescedRxIdle            0                       # average number of RxIdle's coalesced into each post
system.realview.ethernet.totalRxIdle                0                       # total number of RxIdle written to ISR
system.realview.ethernet.postedRxOk                 0                       # number of RxOk interrupts posted to CPU
system.realview.ethernet.coalescedRxOk              0                       # average number of RxOk's coalesced into each post
system.realview.ethernet.totalRxOk                  0                       # total number of RxOk written to ISR
system.realview.ethernet.postedRxDesc               0                       # number of RxDesc interrupts posted to CPU
system.realview.ethernet.coalescedRxDesc            0                       # average number of RxDesc's coalesced into each post
system.realview.ethernet.totalRxDesc                0                       # total number of RxDesc written to ISR
system.realview.ethernet.postedTxOk                 0                       # number of TxOk interrupts posted to CPU
system.realview.ethernet.coalescedTxOk              0                       # average number of TxOk's coalesced into each post
system.realview.ethernet.totalTxOk                  0                       # total number of TxOk written to ISR
system.realview.ethernet.postedTxIdle               0                       # number of TxIdle interrupts posted to CPU
system.realview.ethernet.coalescedTxIdle            0                       # average number of TxIdle's coalesced into each post
system.realview.ethernet.totalTxIdle                0                       # total number of TxIdle written to ISR
system.realview.ethernet.postedTxDesc               0                       # number of TxDesc interrupts posted to CPU
system.realview.ethernet.coalescedTxDesc            0                       # average number of TxDesc's coalesced into each post
system.realview.ethernet.totalTxDesc                0                       # total number of TxDesc written to ISR
system.realview.ethernet.postedRxOrn                0                       # number of RxOrn posted to CPU
system.realview.ethernet.coalescedRxOrn             0                       # average number of RxOrn's coalesced into each post
system.realview.ethernet.totalRxOrn                 0                       # total number of RxOrn written to ISR
system.realview.ethernet.coalescedTotal             0                       # average number of interrupts coalesced into each post
system.realview.ethernet.postedInterrupts           13                       # number of posts to CPU
system.realview.ethernet.droppedPackets             0                       # number of packets dropped
system.realview.realview_io.osc_pxl.clock        42105                       # Clock period in ticks
system.realview.realview_io.osc_clcd.clock        42105                       # Clock period in ticks
system.realview.realview_io.osc_cpu.clock        16667                       # Clock period in ticks
system.realview.realview_io.osc_ddr.clock        25000                       # Clock period in ticks
system.realview.realview_io.osc_hsbm.clock        25000                       # Clock period in ticks
system.realview.realview_io.osc_mcc.clock        20000                       # Clock period in ticks
system.realview.realview_io.osc_peripheral.clock        41667                       # Clock period in ticks
system.realview.realview_io.osc_smb.clock        20000                       # Clock period in ticks
system.realview.realview_io.osc_sys.clock        16667                       # Clock period in ticks
system.realview.realview_io.osc_system_bus.clock        41667                       # Clock period in ticks
system.toL2Bus.snoop_filter.tot_requests     11772030                       # Total number of requests made to the snoop filter.
system.toL2Bus.snoop_filter.hit_single_requests      5986527                       # Number of requests hitting in the snoop filter with a single holder of the requested data.
system.toL2Bus.snoop_filter.hit_multi_requests      2060183                       # Number of requests hitting in the snoop filter with multiple (>1) holders of the requested data.
system.toL2Bus.snoop_filter.tot_snoops         193514                       # Total number of snoops made to the snoop filter.
system.toL2Bus.snoop_filter.hit_single_snoops       180675                       # Number of snoops hitting in the snoop filter with a single holder of the requested data.
system.toL2Bus.snoop_filter.hit_multi_snoops        12839                       # Number of snoops hitting in the snoop filter with multiple (>1) holders of the requested data.
system.toL2Bus.trans_dist::ReadReq              59758                       # Transaction distribution
system.toL2Bus.trans_dist::ReadResp           4863251                       # Transaction distribution
system.toL2Bus.trans_dist::WriteReq             38287                       # Transaction distribution
system.toL2Bus.trans_dist::WriteResp            38287                       # Transaction distribution
system.toL2Bus.trans_dist::Writeback          3950228                       # Transaction distribution
system.toL2Bus.trans_dist::CleanEvict         1568757                       # Transaction distribution
system.toL2Bus.trans_dist::UpgradeReq          493482                       # Transaction distribution
system.toL2Bus.trans_dist::SCUpgradeReq        318513                       # Transaction distribution
system.toL2Bus.trans_dist::UpgradeResp         811995                       # Transaction distribution
system.toL2Bus.trans_dist::SCUpgradeFailReq          125                       # Transaction distribution
system.toL2Bus.trans_dist::UpgradeFailResp          125                       # Transaction distribution
system.toL2Bus.trans_dist::ReadExReq          1145198                       # Transaction distribution
system.toL2Bus.trans_dist::ReadExResp         1145198                       # Transaction distribution
system.toL2Bus.trans_dist::ReadSharedReq      4810734                       # Transaction distribution
system.toL2Bus.trans_dist::InvalidateReq       106728                       # Transaction distribution
system.toL2Bus.pkt_count_system.cpu0.l2cache.mem_side::system.l2c.cpu_side      9122705                       # Packet count per connected master and slave (bytes)
system.toL2Bus.pkt_count_system.cpu1.l2cache.mem_side::system.l2c.cpu_side      6709100                       # Packet count per connected master and slave (bytes)
system.toL2Bus.pkt_count::total              15831805                       # Packet count per connected master and slave (bytes)
system.toL2Bus.pkt_size_system.cpu0.l2cache.mem_side::system.l2c.cpu_side    283955252                       # Cumulative packet size per connected master and slave (bytes)
system.toL2Bus.pkt_size_system.cpu1.l2cache.mem_side::system.l2c.cpu_side    196820081                       # Cumulative packet size per connected master and slave (bytes)
system.toL2Bus.pkt_size::total              480775333                       # Cumulative packet size per connected master and slave (bytes)
system.toL2Bus.snoops                         3520564                       # Total snoops (count)
system.toL2Bus.snoop_fanout::samples         13735314                       # Request fanout histogram
system.toL2Bus.snoop_fanout::mean            0.326662                       # Request fanout histogram
system.toL2Bus.snoop_fanout::stdev           0.470981                       # Request fanout histogram
system.toL2Bus.snoop_fanout::underflows             0      0.00%      0.00% # Request fanout histogram
system.toL2Bus.snoop_fanout::0                9261350     67.43%     67.43% # Request fanout histogram
system.toL2Bus.snoop_fanout::1                4461125     32.48%     99.91% # Request fanout histogram
system.toL2Bus.snoop_fanout::2                  12839      0.09%    100.00% # Request fanout histogram
system.toL2Bus.snoop_fanout::overflows              0      0.00%    100.00% # Request fanout histogram
system.toL2Bus.snoop_fanout::min_value              0                       # Request fanout histogram
system.toL2Bus.snoop_fanout::max_value              2                       # Request fanout histogram
system.toL2Bus.snoop_fanout::total           13735314                       # Request fanout histogram
system.toL2Bus.reqLayer0.occupancy         9000721880                       # Layer occupancy (ticks)
system.toL2Bus.reqLayer0.utilization              0.0                       # Layer utilization (%)
system.toL2Bus.snoopLayer0.occupancy          2650288                       # Layer occupancy (ticks)
system.toL2Bus.snoopLayer0.utilization            0.0                       # Layer utilization (%)
system.toL2Bus.respLayer0.occupancy        5320683808                       # Layer occupancy (ticks)
system.toL2Bus.respLayer0.utilization             0.0                       # Layer utilization (%)
system.toL2Bus.respLayer1.occupancy        4098533956                       # Layer occupancy (ticks)
system.toL2Bus.respLayer1.utilization             0.0                       # Layer utilization (%)
system.cpu0.kern.inst.arm                           0                       # number of arm instructions executed
system.cpu0.kern.inst.quiesce                   13032                       # number of quiesce instructions executed
system.cpu1.kern.inst.arm                           0                       # number of arm instructions executed
system.cpu1.kern.inst.quiesce                    5368                       # number of quiesce instructions executed

---------- End Simulation Statistics   ----------
