
---------- Begin Simulation Statistics ----------
host_inst_rate                                 954040                       # Simulator instruction rate (inst/s)
host_mem_usage                                 200820                       # Number of bytes of host memory used
host_seconds                                  1567.53                       # Real time elapsed on the host
host_tick_rate                              554042856                       # Simulator tick rate (ticks/s)
sim_freq                                 1000000000000                       # Frequency of simulated ticks
sim_insts                                  1495482356                       # Number of instructions simulated
sim_seconds                                  0.868476                       # Number of seconds simulated
sim_ticks                                868476152500                       # Number of ticks simulated
system.cpu.idle_fraction                            0                       # Percentage of idle cycles
system.cpu.not_idle_fraction                        1                       # Percentage of non-idle cycles
system.cpu.numCycles                       1736952306                       # number of cpu cycles simulated
system.cpu.num_insts                       1495482356                       # Number of instructions executed
system.cpu.num_refs                         533262337                       # Number of memory references
system.cpu.workload.PROG:num_syscalls             551                       # Number of system calls

---------- End Simulation Statistics   ----------
