gem5 Simulator System.  http://gem5.org
gem5 is copyrighted software; use the --copyright option for details.

gem5 compiled Dec 11 2015 19:54:02
gem5 started Dec 11 2015 19:54:27
gem5 executing on zizzer, pid 26151
command line: build/ALPHA/gem5.opt -d build/ALPHA/tests/opt/quick/se/20.eio-short/alpha/eio/simple-timing -re /z/atgutier/gem5/gem5/tests/run.py build/ALPHA/tests/opt/quick/se/20.eio-short/alpha/eio/simple-timing

Skipping test: Test requires the 'EioProcess' SimObject.
