gem5 Simulator System.  http://gem5.org
gem5 is copyrighted software; use the --copyright option for details.

gem5 compiled May 10 2014 16:25:16
gem5 started May 10 2014 16:55:42
gem5 executing on zizzer
command line: build/ALPHA/gem5.opt -d build/ALPHA/tests/opt/quick/se/20.eio-short/alpha/eio/simple-timing -re /z/stever/hg/gem5/tests/run.py build/ALPHA/tests/opt/quick/se/20.eio-short/alpha/eio/simple-timing
Global frequency set at 1000000000000 ticks per second
info: Entering event queue @ 0.  Starting simulation...
main dictionary has 1245 entries
49508 bytes wasted
>Exiting @ tick 727072000 because a thread reached the max instruction count
