Redirecting stdout to build/ALPHA/tests/opt/quick/se/20.eio-short/alpha/eio/simple-timing/simout
Redirecting stderr to build/ALPHA/tests/opt/quick/se/20.eio-short/alpha/eio/simple-timing/simerr
gem5 Simulator System.  http://gem5.org
gem5 is copyrighted software; use the --copyright option for details.

gem5 compiled Nov 15 2015 14:28:00
gem5 started Nov 15 2015 14:30:32
gem5 executing on ribera.cs.wisc.edu, pid 29162
command line: build/ALPHA/gem5.opt -d build/ALPHA/tests/opt/quick/se/20.eio-short/alpha/eio/simple-timing -re /scratch/nilay/GEM5/gem5/tests/run.py build/ALPHA/tests/opt/quick/se/20.eio-short/alpha/eio/simple-timing

Skipping test: Test requires the 'EioProcess' SimObject.
