Redirecting stdout to build/ARM_FS/tests/opt/long/10.linux-boot/arm/linux/realview-o3/simout
Redirecting stderr to build/ARM_FS/tests/opt/long/10.linux-boot/arm/linux/realview-o3/simerr
gem5 Simulator System.  http://gem5.org
gem5 is copyrighted software; use the --copyright option for details.

gem5 compiled Jan  8 2012 22:12:58
gem5 started Jan  9 2012 03:32:35
gem5 executing on zizzer
command line: build/ARM_FS/gem5.opt -d build/ARM_FS/tests/opt/long/10.linux-boot/arm/linux/realview-o3 -re tests/run.py build/ARM_FS/tests/opt/long/10.linux-boot/arm/linux/realview-o3
Global frequency set at 1000000000000 ticks per second
info: kernel located at: /dist/m5/system/binaries/vmlinux.arm.smp.fb.2.6.38.8
info: Using bootloader at address 0x80000000
info: Entering event queue @ 0.  Starting simulation...
Exiting @ tick 2503566110500 because m5_exit instruction encountered
