gem5 Simulator System.  http://gem5.org
gem5 is copyrighted software; use the --copyright option for details.

gem5 compiled Jul  6 2015 14:29:04
gem5 started Jul  6 2015 20:46:38
gem5 executing on e104799-lin
command line: build/X86/gem5.opt -d build/X86/tests/opt/long/fs/10.linux-boot/x86/linux/pc-o3-timing -re /work/gem5/outgoing/gem5/tests/run.py build/X86/tests/opt/long/fs/10.linux-boot/x86/linux/pc-o3-timing

Global frequency set at 1000000000000 ticks per second
info: kernel located at: /work/gem5/dist/binaries/x86_64-vmlinux-2.6.22.9
      0: rtc: Real-time clock set to Sun Jan  1 00:00:00 2012
info: Entering event queue @ 0.  Starting simulation...
Exiting @ tick 5130108675000 because m5_exit instruction encountered
