
---------- Begin Simulation Statistics ----------
sim_seconds                                  5.133933                       # Number of seconds simulated
sim_ticks                                5133933067000                       # Number of ticks simulated
final_tick                               5133933067000                       # Number of ticks from beginning of simulation (restored from checkpoints and never reset)
sim_freq                                 1000000000000                       # Frequency of simulated ticks
host_inst_rate                                 186687                       # Simulator instruction rate (inst/s)
host_op_rate                                   369023                       # Simulator op (including micro ops) rate (op/s)
host_tick_rate                             2350538489                       # Simulator tick rate (ticks/s)
host_mem_usage                                 736008                       # Number of bytes of host memory used
host_seconds                                  2184.15                       # Real time elapsed on the host
sim_insts                                   407751929                       # Number of instructions simulated
sim_ops                                     806002693                       # Number of ops (including micro ops) simulated
system.voltage_domain.voltage                       1                       # Voltage in Volts
system.clk_domain.clock                          1000                       # Clock period in ticks
system.physmem.bytes_read::pc.south_bridge.ide      2437184                       # Number of bytes read from this memory
system.physmem.bytes_read::cpu.dtb.walker         3904                       # Number of bytes read from this memory
system.physmem.bytes_read::cpu.itb.walker          320                       # Number of bytes read from this memory
system.physmem.bytes_read::cpu.inst           1029376                       # Number of bytes read from this memory
system.physmem.bytes_read::cpu.data          10746496                       # Number of bytes read from this memory
system.physmem.bytes_read::total             14217280                       # Number of bytes read from this memory
system.physmem.bytes_inst_read::cpu.inst      1029376                       # Number of instructions bytes read from this memory
system.physmem.bytes_inst_read::total         1029376                       # Number of instructions bytes read from this memory
system.physmem.bytes_written::writebacks      9492672                       # Number of bytes written to this memory
system.physmem.bytes_written::total           9492672                       # Number of bytes written to this memory
system.physmem.num_reads::pc.south_bridge.ide        38081                       # Number of read requests responded to by this memory
system.physmem.num_reads::cpu.dtb.walker           61                       # Number of read requests responded to by this memory
system.physmem.num_reads::cpu.itb.walker            5                       # Number of read requests responded to by this memory
system.physmem.num_reads::cpu.inst              16084                       # Number of read requests responded to by this memory
system.physmem.num_reads::cpu.data             167914                       # Number of read requests responded to by this memory
system.physmem.num_reads::total                222145                       # Number of read requests responded to by this memory
system.physmem.num_writes::writebacks          148323                       # Number of write requests responded to by this memory
system.physmem.num_writes::total               148323                       # Number of write requests responded to by this memory
system.physmem.bw_read::pc.south_bridge.ide       474721                       # Total read bandwidth from this memory (bytes/s)
system.physmem.bw_read::cpu.dtb.walker            760                       # Total read bandwidth from this memory (bytes/s)
system.physmem.bw_read::cpu.itb.walker             62                       # Total read bandwidth from this memory (bytes/s)
system.physmem.bw_read::cpu.inst               200504                       # Total read bandwidth from this memory (bytes/s)
system.physmem.bw_read::cpu.data              2093229                       # Total read bandwidth from this memory (bytes/s)
system.physmem.bw_read::total                 2769276                       # Total read bandwidth from this memory (bytes/s)
system.physmem.bw_inst_read::cpu.inst          200504                       # Instruction read bandwidth from this memory (bytes/s)
system.physmem.bw_inst_read::total             200504                       # Instruction read bandwidth from this memory (bytes/s)
system.physmem.bw_write::writebacks           1849006                       # Write bandwidth from this memory (bytes/s)
system.physmem.bw_write::total                1849006                       # Write bandwidth from this memory (bytes/s)
system.physmem.bw_total::writebacks           1849006                       # Total bandwidth to/from this memory (bytes/s)
system.physmem.bw_total::pc.south_bridge.ide       474721                       # Total bandwidth to/from this memory (bytes/s)
system.physmem.bw_total::cpu.dtb.walker           760                       # Total bandwidth to/from this memory (bytes/s)
system.physmem.bw_total::cpu.itb.walker            62                       # Total bandwidth to/from this memory (bytes/s)
system.physmem.bw_total::cpu.inst              200504                       # Total bandwidth to/from this memory (bytes/s)
system.physmem.bw_total::cpu.data             2093229                       # Total bandwidth to/from this memory (bytes/s)
system.physmem.bw_total::total                4618282                       # Total bandwidth to/from this memory (bytes/s)
system.physmem.readReqs                        222145                       # Number of read requests accepted
system.physmem.writeReqs                       148323                       # Number of write requests accepted
system.physmem.readBursts                      222145                       # Number of DRAM read bursts, including those serviced by the write queue
system.physmem.writeBursts                     148323                       # Number of DRAM write bursts, including those merged in the write queue
system.physmem.bytesReadDRAM                 14211648                       # Total number of bytes read from DRAM
system.physmem.bytesReadWrQ                      5632                       # Total number of bytes read from write queue
system.physmem.bytesWritten                   9492416                       # Total number of bytes written to DRAM
system.physmem.bytesReadSys                  14217280                       # Total read bytes from the system interface side
system.physmem.bytesWrittenSys                9492672                       # Total written bytes from the system interface side
system.physmem.servicedByWrQ                       88                       # Number of DRAM read bursts serviced by the write queue
system.physmem.mergedWrBursts                       0                       # Number of DRAM write bursts merged with an existing one
system.physmem.neitherReadNorWriteReqs           1715                       # Number of requests that are neither read nor write
system.physmem.perBankRdBursts::0               14970                       # Per bank write bursts
system.physmem.perBankRdBursts::1               13960                       # Per bank write bursts
system.physmem.perBankRdBursts::2               14769                       # Per bank write bursts
system.physmem.perBankRdBursts::3               13764                       # Per bank write bursts
system.physmem.perBankRdBursts::4               13644                       # Per bank write bursts
system.physmem.perBankRdBursts::5               13392                       # Per bank write bursts
system.physmem.perBankRdBursts::6               13407                       # Per bank write bursts
system.physmem.perBankRdBursts::7               13589                       # Per bank write bursts
system.physmem.perBankRdBursts::8               13408                       # Per bank write bursts
system.physmem.perBankRdBursts::9               13258                       # Per bank write bursts
system.physmem.perBankRdBursts::10              13821                       # Per bank write bursts
system.physmem.perBankRdBursts::11              13878                       # Per bank write bursts
system.physmem.perBankRdBursts::12              14332                       # Per bank write bursts
system.physmem.perBankRdBursts::13              14527                       # Per bank write bursts
system.physmem.perBankRdBursts::14              13749                       # Per bank write bursts
system.physmem.perBankRdBursts::15              13589                       # Per bank write bursts
system.physmem.perBankWrBursts::0               10370                       # Per bank write bursts
system.physmem.perBankWrBursts::1                9405                       # Per bank write bursts
system.physmem.perBankWrBursts::2                9871                       # Per bank write bursts
system.physmem.perBankWrBursts::3                9165                       # Per bank write bursts
system.physmem.perBankWrBursts::4                9017                       # Per bank write bursts
system.physmem.perBankWrBursts::5                8953                       # Per bank write bursts
system.physmem.perBankWrBursts::6                8740                       # Per bank write bursts
system.physmem.perBankWrBursts::7                8992                       # Per bank write bursts
system.physmem.perBankWrBursts::8                8721                       # Per bank write bursts
system.physmem.perBankWrBursts::9                8568                       # Per bank write bursts
system.physmem.perBankWrBursts::10               9309                       # Per bank write bursts
system.physmem.perBankWrBursts::11               9216                       # Per bank write bursts
system.physmem.perBankWrBursts::12               9686                       # Per bank write bursts
system.physmem.perBankWrBursts::13               9800                       # Per bank write bursts
system.physmem.perBankWrBursts::14               9415                       # Per bank write bursts
system.physmem.perBankWrBursts::15               9091                       # Per bank write bursts
system.physmem.numRdRetry                           0                       # Number of times read queue was full causing retry
system.physmem.numWrRetry                           8                       # Number of times write queue was full causing retry
system.physmem.totGap                    5133933013500                       # Total gap between requests
system.physmem.readPktSize::0                       0                       # Read request sizes (log2)
system.physmem.readPktSize::1                       0                       # Read request sizes (log2)
system.physmem.readPktSize::2                       0                       # Read request sizes (log2)
system.physmem.readPktSize::3                       0                       # Read request sizes (log2)
system.physmem.readPktSize::4                       0                       # Read request sizes (log2)
system.physmem.readPktSize::5                       0                       # Read request sizes (log2)
system.physmem.readPktSize::6                  222145                       # Read request sizes (log2)
system.physmem.writePktSize::0                      0                       # Write request sizes (log2)
system.physmem.writePktSize::1                      0                       # Write request sizes (log2)
system.physmem.writePktSize::2                      0                       # Write request sizes (log2)
system.physmem.writePktSize::3                      0                       # Write request sizes (log2)
system.physmem.writePktSize::4                      0                       # Write request sizes (log2)
system.physmem.writePktSize::5                      0                       # Write request sizes (log2)
system.physmem.writePktSize::6                 148323                       # Write request sizes (log2)
system.physmem.rdQLenPdf::0                    174666                       # What read queue length does an incoming req see
system.physmem.rdQLenPdf::1                     21456                       # What read queue length does an incoming req see
system.physmem.rdQLenPdf::2                      6950                       # What read queue length does an incoming req see
system.physmem.rdQLenPdf::3                      2913                       # What read queue length does an incoming req see
system.physmem.rdQLenPdf::4                      2112                       # What read queue length does an incoming req see
system.physmem.rdQLenPdf::5                      2066                       # What read queue length does an incoming req see
system.physmem.rdQLenPdf::6                      1506                       # What read queue length does an incoming req see
system.physmem.rdQLenPdf::7                      1520                       # What read queue length does an incoming req see
system.physmem.rdQLenPdf::8                      1430                       # What read queue length does an incoming req see
system.physmem.rdQLenPdf::9                      1072                       # What read queue length does an incoming req see
system.physmem.rdQLenPdf::10                      864                       # What read queue length does an incoming req see
system.physmem.rdQLenPdf::11                      755                       # What read queue length does an incoming req see
system.physmem.rdQLenPdf::12                      678                       # What read queue length does an incoming req see
system.physmem.rdQLenPdf::13                      656                       # What read queue length does an incoming req see
system.physmem.rdQLenPdf::14                      606                       # What read queue length does an incoming req see
system.physmem.rdQLenPdf::15                      583                       # What read queue length does an incoming req see
system.physmem.rdQLenPdf::16                      571                       # What read queue length does an incoming req see
system.physmem.rdQLenPdf::17                      555                       # What read queue length does an incoming req see
system.physmem.rdQLenPdf::18                      538                       # What read queue length does an incoming req see
system.physmem.rdQLenPdf::19                      523                       # What read queue length does an incoming req see
system.physmem.rdQLenPdf::20                       33                       # What read queue length does an incoming req see
system.physmem.rdQLenPdf::21                        3                       # What read queue length does an incoming req see
system.physmem.rdQLenPdf::22                        1                       # What read queue length does an incoming req see
system.physmem.rdQLenPdf::23                        0                       # What read queue length does an incoming req see
system.physmem.rdQLenPdf::24                        0                       # What read queue length does an incoming req see
system.physmem.rdQLenPdf::25                        0                       # What read queue length does an incoming req see
system.physmem.rdQLenPdf::26                        0                       # What read queue length does an incoming req see
system.physmem.rdQLenPdf::27                        0                       # What read queue length does an incoming req see
system.physmem.rdQLenPdf::28                        0                       # What read queue length does an incoming req see
system.physmem.rdQLenPdf::29                        0                       # What read queue length does an incoming req see
system.physmem.rdQLenPdf::30                        0                       # What read queue length does an incoming req see
system.physmem.rdQLenPdf::31                        0                       # What read queue length does an incoming req see
system.physmem.wrQLenPdf::0                      6022                       # What write queue length does an incoming req see
system.physmem.wrQLenPdf::1                      6256                       # What write queue length does an incoming req see
system.physmem.wrQLenPdf::2                      6299                       # What write queue length does an incoming req see
system.physmem.wrQLenPdf::3                      6341                       # What write queue length does an incoming req see
system.physmem.wrQLenPdf::4                      6448                       # What write queue length does an incoming req see
system.physmem.wrQLenPdf::5                      6596                       # What write queue length does an incoming req see
system.physmem.wrQLenPdf::6                      6608                       # What write queue length does an incoming req see
system.physmem.wrQLenPdf::7                      6666                       # What write queue length does an incoming req see
system.physmem.wrQLenPdf::8                      6998                       # What write queue length does an incoming req see
system.physmem.wrQLenPdf::9                      7022                       # What write queue length does an incoming req see
system.physmem.wrQLenPdf::10                     7020                       # What write queue length does an incoming req see
system.physmem.wrQLenPdf::11                     7083                       # What write queue length does an incoming req see
system.physmem.wrQLenPdf::12                     7644                       # What write queue length does an incoming req see
system.physmem.wrQLenPdf::13                     7121                       # What write queue length does an incoming req see
system.physmem.wrQLenPdf::14                     7236                       # What write queue length does an incoming req see
system.physmem.wrQLenPdf::15                     7399                       # What write queue length does an incoming req see
system.physmem.wrQLenPdf::16                     7458                       # What write queue length does an incoming req see
system.physmem.wrQLenPdf::17                     6317                       # What write queue length does an incoming req see
system.physmem.wrQLenPdf::18                     6247                       # What write queue length does an incoming req see
system.physmem.wrQLenPdf::19                     6188                       # What write queue length does an incoming req see
system.physmem.wrQLenPdf::20                     6157                       # What write queue length does an incoming req see
system.physmem.wrQLenPdf::21                     6233                       # What write queue length does an incoming req see
system.physmem.wrQLenPdf::22                      386                       # What write queue length does an incoming req see
system.physmem.wrQLenPdf::23                      282                       # What write queue length does an incoming req see
system.physmem.wrQLenPdf::24                       69                       # What write queue length does an incoming req see
system.physmem.wrQLenPdf::25                       52                       # What write queue length does an incoming req see
system.physmem.wrQLenPdf::26                       42                       # What write queue length does an incoming req see
system.physmem.wrQLenPdf::27                       36                       # What write queue length does an incoming req see
system.physmem.wrQLenPdf::28                       32                       # What write queue length does an incoming req see
system.physmem.wrQLenPdf::29                       23                       # What write queue length does an incoming req see
system.physmem.wrQLenPdf::30                       20                       # What write queue length does an incoming req see
system.physmem.wrQLenPdf::31                       22                       # What write queue length does an incoming req see
system.physmem.bytesPerActivate::samples        68754                       # Bytes accessed per row activation
system.physmem.bytesPerActivate::mean      344.735608                       # Bytes accessed per row activation
system.physmem.bytesPerActivate::gmean     150.882581                       # Bytes accessed per row activation
system.physmem.bytesPerActivate::stdev    1084.800437                       # Bytes accessed per row activation
system.physmem.bytesPerActivate::64-67          30893     44.93%     44.93% # Bytes accessed per row activation
system.physmem.bytesPerActivate::128-131        10573     15.38%     60.31% # Bytes accessed per row activation
system.physmem.bytesPerActivate::192-195         6859      9.98%     70.29% # Bytes accessed per row activation
system.physmem.bytesPerActivate::256-259         4406      6.41%     76.70% # Bytes accessed per row activation
system.physmem.bytesPerActivate::320-323         2663      3.87%     80.57% # Bytes accessed per row activation
system.physmem.bytesPerActivate::384-387         2166      3.15%     83.72% # Bytes accessed per row activation
system.physmem.bytesPerActivate::448-451         1652      2.40%     86.12% # Bytes accessed per row activation
system.physmem.bytesPerActivate::512-515         1226      1.78%     87.90% # Bytes accessed per row activation
system.physmem.bytesPerActivate::576-579         1018      1.48%     89.39% # Bytes accessed per row activation
system.physmem.bytesPerActivate::640-643          978      1.42%     90.81% # Bytes accessed per row activation
system.physmem.bytesPerActivate::704-707          656      0.95%     91.76% # Bytes accessed per row activation
system.physmem.bytesPerActivate::768-771          637      0.93%     92.69% # Bytes accessed per row activation
system.physmem.bytesPerActivate::832-835          446      0.65%     93.34% # Bytes accessed per row activation
system.physmem.bytesPerActivate::896-899          438      0.64%     93.97% # Bytes accessed per row activation
system.physmem.bytesPerActivate::960-963          344      0.50%     94.47% # Bytes accessed per row activation
system.physmem.bytesPerActivate::1024-1027          542      0.79%     95.26% # Bytes accessed per row activation
system.physmem.bytesPerActivate::1088-1091          252      0.37%     95.63% # Bytes accessed per row activation
system.physmem.bytesPerActivate::1152-1155          218      0.32%     95.95% # Bytes accessed per row activation
system.physmem.bytesPerActivate::1216-1219          163      0.24%     96.18% # Bytes accessed per row activation
system.physmem.bytesPerActivate::1280-1283          136      0.20%     96.38% # Bytes accessed per row activation
system.physmem.bytesPerActivate::1344-1347          158      0.23%     96.61% # Bytes accessed per row activation
system.physmem.bytesPerActivate::1408-1411          420      0.61%     97.22% # Bytes accessed per row activation
system.physmem.bytesPerActivate::1472-1475          150      0.22%     97.44% # Bytes accessed per row activation
system.physmem.bytesPerActivate::1536-1539          127      0.18%     97.62% # Bytes accessed per row activation
system.physmem.bytesPerActivate::1600-1603          107      0.16%     97.78% # Bytes accessed per row activation
system.physmem.bytesPerActivate::1664-1667           87      0.13%     97.91% # Bytes accessed per row activation
system.physmem.bytesPerActivate::1728-1731           59      0.09%     97.99% # Bytes accessed per row activation
system.physmem.bytesPerActivate::1792-1795           64      0.09%     98.09% # Bytes accessed per row activation
system.physmem.bytesPerActivate::1856-1859           17      0.02%     98.11% # Bytes accessed per row activation
system.physmem.bytesPerActivate::1920-1923           43      0.06%     98.17% # Bytes accessed per row activation
system.physmem.bytesPerActivate::1984-1987           19      0.03%     98.20% # Bytes accessed per row activation
system.physmem.bytesPerActivate::2048-2051           31      0.05%     98.25% # Bytes accessed per row activation
system.physmem.bytesPerActivate::2112-2115           20      0.03%     98.28% # Bytes accessed per row activation
system.physmem.bytesPerActivate::2176-2179           40      0.06%     98.33% # Bytes accessed per row activation
system.physmem.bytesPerActivate::2240-2243           10      0.01%     98.35% # Bytes accessed per row activation
system.physmem.bytesPerActivate::2304-2307           13      0.02%     98.37% # Bytes accessed per row activation
system.physmem.bytesPerActivate::2368-2371           16      0.02%     98.39% # Bytes accessed per row activation
system.physmem.bytesPerActivate::2432-2435           31      0.05%     98.44% # Bytes accessed per row activation
system.physmem.bytesPerActivate::2496-2499           10      0.01%     98.45% # Bytes accessed per row activation
system.physmem.bytesPerActivate::2560-2563            6      0.01%     98.46% # Bytes accessed per row activation
system.physmem.bytesPerActivate::2624-2627           13      0.02%     98.48% # Bytes accessed per row activation
system.physmem.bytesPerActivate::2688-2691           31      0.05%     98.52% # Bytes accessed per row activation
system.physmem.bytesPerActivate::2752-2755           12      0.02%     98.54% # Bytes accessed per row activation
system.physmem.bytesPerActivate::2816-2819            4      0.01%     98.55% # Bytes accessed per row activation
system.physmem.bytesPerActivate::2880-2883            6      0.01%     98.55% # Bytes accessed per row activation
system.physmem.bytesPerActivate::2944-2947           27      0.04%     98.59% # Bytes accessed per row activation
system.physmem.bytesPerActivate::3008-3011            9      0.01%     98.61% # Bytes accessed per row activation
system.physmem.bytesPerActivate::3072-3075           12      0.02%     98.62% # Bytes accessed per row activation
system.physmem.bytesPerActivate::3136-3139            6      0.01%     98.63% # Bytes accessed per row activation
system.physmem.bytesPerActivate::3200-3203           28      0.04%     98.67% # Bytes accessed per row activation
system.physmem.bytesPerActivate::3264-3267            6      0.01%     98.68% # Bytes accessed per row activation
system.physmem.bytesPerActivate::3328-3331            7      0.01%     98.69% # Bytes accessed per row activation
system.physmem.bytesPerActivate::3392-3395            2      0.00%     98.70% # Bytes accessed per row activation
system.physmem.bytesPerActivate::3456-3459           25      0.04%     98.73% # Bytes accessed per row activation
system.physmem.bytesPerActivate::3520-3523            3      0.00%     98.74% # Bytes accessed per row activation
system.physmem.bytesPerActivate::3584-3587            5      0.01%     98.74% # Bytes accessed per row activation
system.physmem.bytesPerActivate::3648-3651            5      0.01%     98.75% # Bytes accessed per row activation
system.physmem.bytesPerActivate::3712-3715           26      0.04%     98.79% # Bytes accessed per row activation
system.physmem.bytesPerActivate::3776-3779           10      0.01%     98.80% # Bytes accessed per row activation
system.physmem.bytesPerActivate::3840-3843            5      0.01%     98.81% # Bytes accessed per row activation
system.physmem.bytesPerActivate::3904-3907            9      0.01%     98.82% # Bytes accessed per row activation
system.physmem.bytesPerActivate::3968-3971           28      0.04%     98.86% # Bytes accessed per row activation
system.physmem.bytesPerActivate::4032-4035            4      0.01%     98.87% # Bytes accessed per row activation
system.physmem.bytesPerActivate::4096-4099           15      0.02%     98.89% # Bytes accessed per row activation
system.physmem.bytesPerActivate::4160-4163            3      0.00%     98.90% # Bytes accessed per row activation
system.physmem.bytesPerActivate::4224-4227           27      0.04%     98.94% # Bytes accessed per row activation
system.physmem.bytesPerActivate::4288-4291            3      0.00%     98.94% # Bytes accessed per row activation
system.physmem.bytesPerActivate::4352-4355            2      0.00%     98.94% # Bytes accessed per row activation
system.physmem.bytesPerActivate::4416-4419            2      0.00%     98.95% # Bytes accessed per row activation
system.physmem.bytesPerActivate::4480-4483           23      0.03%     98.98% # Bytes accessed per row activation
system.physmem.bytesPerActivate::4544-4547            3      0.00%     98.98% # Bytes accessed per row activation
system.physmem.bytesPerActivate::4608-4611            2      0.00%     98.99% # Bytes accessed per row activation
system.physmem.bytesPerActivate::4672-4675            5      0.01%     98.99% # Bytes accessed per row activation
system.physmem.bytesPerActivate::4736-4739           25      0.04%     99.03% # Bytes accessed per row activation
system.physmem.bytesPerActivate::4800-4803            4      0.01%     99.04% # Bytes accessed per row activation
system.physmem.bytesPerActivate::4864-4867            1      0.00%     99.04% # Bytes accessed per row activation
system.physmem.bytesPerActivate::4992-4995           22      0.03%     99.07% # Bytes accessed per row activation
system.physmem.bytesPerActivate::5056-5059            2      0.00%     99.07% # Bytes accessed per row activation
system.physmem.bytesPerActivate::5120-5123            3      0.00%     99.08% # Bytes accessed per row activation
system.physmem.bytesPerActivate::5184-5187            4      0.01%     99.08% # Bytes accessed per row activation
system.physmem.bytesPerActivate::5248-5251           26      0.04%     99.12% # Bytes accessed per row activation
system.physmem.bytesPerActivate::5376-5379            1      0.00%     99.12% # Bytes accessed per row activation
system.physmem.bytesPerActivate::5440-5443            2      0.00%     99.12% # Bytes accessed per row activation
system.physmem.bytesPerActivate::5504-5507           22      0.03%     99.16% # Bytes accessed per row activation
system.physmem.bytesPerActivate::5568-5571            4      0.01%     99.16% # Bytes accessed per row activation
system.physmem.bytesPerActivate::5696-5699            3      0.00%     99.17% # Bytes accessed per row activation
system.physmem.bytesPerActivate::5760-5763           24      0.03%     99.20% # Bytes accessed per row activation
system.physmem.bytesPerActivate::5824-5827            4      0.01%     99.21% # Bytes accessed per row activation
system.physmem.bytesPerActivate::5888-5891            1      0.00%     99.21% # Bytes accessed per row activation
system.physmem.bytesPerActivate::5952-5955            1      0.00%     99.21% # Bytes accessed per row activation
system.physmem.bytesPerActivate::6016-6019           24      0.03%     99.25% # Bytes accessed per row activation
system.physmem.bytesPerActivate::6080-6083            1      0.00%     99.25% # Bytes accessed per row activation
system.physmem.bytesPerActivate::6144-6147            1      0.00%     99.25% # Bytes accessed per row activation
system.physmem.bytesPerActivate::6208-6211            3      0.00%     99.25% # Bytes accessed per row activation
system.physmem.bytesPerActivate::6272-6275           24      0.03%     99.29% # Bytes accessed per row activation
system.physmem.bytesPerActivate::6336-6339            3      0.00%     99.29% # Bytes accessed per row activation
system.physmem.bytesPerActivate::6400-6403            4      0.01%     99.30% # Bytes accessed per row activation
system.physmem.bytesPerActivate::6464-6467            1      0.00%     99.30% # Bytes accessed per row activation
system.physmem.bytesPerActivate::6528-6531           23      0.03%     99.33% # Bytes accessed per row activation
system.physmem.bytesPerActivate::6592-6595            4      0.01%     99.34% # Bytes accessed per row activation
system.physmem.bytesPerActivate::6656-6659           75      0.11%     99.45% # Bytes accessed per row activation
system.physmem.bytesPerActivate::6720-6723            3      0.00%     99.45% # Bytes accessed per row activation
system.physmem.bytesPerActivate::6784-6787            2      0.00%     99.45% # Bytes accessed per row activation
system.physmem.bytesPerActivate::6848-6851            5      0.01%     99.46% # Bytes accessed per row activation
system.physmem.bytesPerActivate::6912-6915            5      0.01%     99.47% # Bytes accessed per row activation
system.physmem.bytesPerActivate::6976-6979            3      0.00%     99.47% # Bytes accessed per row activation
system.physmem.bytesPerActivate::7040-7043            9      0.01%     99.49% # Bytes accessed per row activation
system.physmem.bytesPerActivate::7104-7107            2      0.00%     99.49% # Bytes accessed per row activation
system.physmem.bytesPerActivate::7168-7171           11      0.02%     99.51% # Bytes accessed per row activation
system.physmem.bytesPerActivate::7232-7235            2      0.00%     99.51% # Bytes accessed per row activation
system.physmem.bytesPerActivate::7360-7363            1      0.00%     99.51% # Bytes accessed per row activation
system.physmem.bytesPerActivate::7488-7491            2      0.00%     99.51% # Bytes accessed per row activation
system.physmem.bytesPerActivate::7552-7555            2      0.00%     99.52% # Bytes accessed per row activation
system.physmem.bytesPerActivate::7616-7619            2      0.00%     99.52% # Bytes accessed per row activation
system.physmem.bytesPerActivate::7680-7683            1      0.00%     99.52% # Bytes accessed per row activation
system.physmem.bytesPerActivate::7744-7747            2      0.00%     99.52% # Bytes accessed per row activation
system.physmem.bytesPerActivate::7808-7811            3      0.00%     99.53% # Bytes accessed per row activation
system.physmem.bytesPerActivate::7872-7875            4      0.01%     99.53% # Bytes accessed per row activation
system.physmem.bytesPerActivate::7936-7939            3      0.00%     99.54% # Bytes accessed per row activation
system.physmem.bytesPerActivate::8000-8003            1      0.00%     99.54% # Bytes accessed per row activation
system.physmem.bytesPerActivate::8064-8067            5      0.01%     99.55% # Bytes accessed per row activation
system.physmem.bytesPerActivate::8128-8131            3      0.00%     99.55% # Bytes accessed per row activation
system.physmem.bytesPerActivate::8192-8195           15      0.02%     99.57% # Bytes accessed per row activation
system.physmem.bytesPerActivate::8320-8323            1      0.00%     99.57% # Bytes accessed per row activation
system.physmem.bytesPerActivate::8384-8387            1      0.00%     99.58% # Bytes accessed per row activation
system.physmem.bytesPerActivate::8448-8451            1      0.00%     99.58% # Bytes accessed per row activation
system.physmem.bytesPerActivate::8512-8515            5      0.01%     99.58% # Bytes accessed per row activation
system.physmem.bytesPerActivate::8640-8643            2      0.00%     99.59% # Bytes accessed per row activation
system.physmem.bytesPerActivate::8704-8707            2      0.00%     99.59% # Bytes accessed per row activation
system.physmem.bytesPerActivate::8768-8771            2      0.00%     99.59% # Bytes accessed per row activation
system.physmem.bytesPerActivate::8832-8835            1      0.00%     99.59% # Bytes accessed per row activation
system.physmem.bytesPerActivate::8896-8899            1      0.00%     99.60% # Bytes accessed per row activation
system.physmem.bytesPerActivate::9024-9027            1      0.00%     99.60% # Bytes accessed per row activation
system.physmem.bytesPerActivate::9152-9155            4      0.01%     99.60% # Bytes accessed per row activation
system.physmem.bytesPerActivate::9216-9219            5      0.01%     99.61% # Bytes accessed per row activation
system.physmem.bytesPerActivate::9344-9347            1      0.00%     99.61% # Bytes accessed per row activation
system.physmem.bytesPerActivate::9472-9475            1      0.00%     99.61% # Bytes accessed per row activation
system.physmem.bytesPerActivate::9536-9539            4      0.01%     99.62% # Bytes accessed per row activation
system.physmem.bytesPerActivate::9600-9603            4      0.01%     99.62% # Bytes accessed per row activation
system.physmem.bytesPerActivate::9664-9667            2      0.00%     99.63% # Bytes accessed per row activation
system.physmem.bytesPerActivate::9792-9795            2      0.00%     99.63% # Bytes accessed per row activation
system.physmem.bytesPerActivate::9856-9859            2      0.00%     99.63% # Bytes accessed per row activation
system.physmem.bytesPerActivate::9920-9923            2      0.00%     99.64% # Bytes accessed per row activation
system.physmem.bytesPerActivate::9984-9987            3      0.00%     99.64% # Bytes accessed per row activation
system.physmem.bytesPerActivate::10112-10115            3      0.00%     99.65% # Bytes accessed per row activation
system.physmem.bytesPerActivate::10304-10307            1      0.00%     99.65% # Bytes accessed per row activation
system.physmem.bytesPerActivate::10432-10435            1      0.00%     99.65% # Bytes accessed per row activation
system.physmem.bytesPerActivate::10496-10499            1      0.00%     99.65% # Bytes accessed per row activation
system.physmem.bytesPerActivate::10560-10563            1      0.00%     99.65% # Bytes accessed per row activation
system.physmem.bytesPerActivate::10624-10627            1      0.00%     99.65% # Bytes accessed per row activation
system.physmem.bytesPerActivate::10880-10883            1      0.00%     99.65% # Bytes accessed per row activation
system.physmem.bytesPerActivate::10944-10947            1      0.00%     99.66% # Bytes accessed per row activation
system.physmem.bytesPerActivate::11072-11075            1      0.00%     99.66% # Bytes accessed per row activation
system.physmem.bytesPerActivate::11136-11139            1      0.00%     99.66% # Bytes accessed per row activation
system.physmem.bytesPerActivate::11200-11203            2      0.00%     99.66% # Bytes accessed per row activation
system.physmem.bytesPerActivate::11264-11267            1      0.00%     99.66% # Bytes accessed per row activation
system.physmem.bytesPerActivate::11328-11331            1      0.00%     99.66% # Bytes accessed per row activation
system.physmem.bytesPerActivate::11392-11395            3      0.00%     99.67% # Bytes accessed per row activation
system.physmem.bytesPerActivate::11520-11523            3      0.00%     99.67% # Bytes accessed per row activation
system.physmem.bytesPerActivate::11712-11715            2      0.00%     99.68% # Bytes accessed per row activation
system.physmem.bytesPerActivate::11904-11907            1      0.00%     99.68% # Bytes accessed per row activation
system.physmem.bytesPerActivate::12160-12163            2      0.00%     99.68% # Bytes accessed per row activation
system.physmem.bytesPerActivate::12224-12227            2      0.00%     99.68% # Bytes accessed per row activation
system.physmem.bytesPerActivate::12416-12419            2      0.00%     99.69% # Bytes accessed per row activation
system.physmem.bytesPerActivate::12608-12611            1      0.00%     99.69% # Bytes accessed per row activation
system.physmem.bytesPerActivate::12672-12675            3      0.00%     99.69% # Bytes accessed per row activation
system.physmem.bytesPerActivate::12736-12739            1      0.00%     99.69% # Bytes accessed per row activation
system.physmem.bytesPerActivate::12928-12931            2      0.00%     99.70% # Bytes accessed per row activation
system.physmem.bytesPerActivate::13056-13059            2      0.00%     99.70% # Bytes accessed per row activation
system.physmem.bytesPerActivate::13184-13187            1      0.00%     99.70% # Bytes accessed per row activation
system.physmem.bytesPerActivate::13248-13251            2      0.00%     99.70% # Bytes accessed per row activation
system.physmem.bytesPerActivate::13312-13315            1      0.00%     99.70% # Bytes accessed per row activation
system.physmem.bytesPerActivate::13632-13635            2      0.00%     99.71% # Bytes accessed per row activation
system.physmem.bytesPerActivate::13696-13699            3      0.00%     99.71% # Bytes accessed per row activation
system.physmem.bytesPerActivate::13824-13827            1      0.00%     99.71% # Bytes accessed per row activation
system.physmem.bytesPerActivate::13888-13891            6      0.01%     99.72% # Bytes accessed per row activation
system.physmem.bytesPerActivate::13952-13955            5      0.01%     99.73% # Bytes accessed per row activation
system.physmem.bytesPerActivate::14016-14019            1      0.00%     99.73% # Bytes accessed per row activation
system.physmem.bytesPerActivate::14080-14083            1      0.00%     99.73% # Bytes accessed per row activation
system.physmem.bytesPerActivate::14208-14211            2      0.00%     99.74% # Bytes accessed per row activation
system.physmem.bytesPerActivate::14272-14275            4      0.01%     99.74% # Bytes accessed per row activation
system.physmem.bytesPerActivate::14400-14403            2      0.00%     99.74% # Bytes accessed per row activation
system.physmem.bytesPerActivate::14464-14467            1      0.00%     99.75% # Bytes accessed per row activation
system.physmem.bytesPerActivate::14528-14531            2      0.00%     99.75% # Bytes accessed per row activation
system.physmem.bytesPerActivate::14592-14595            1      0.00%     99.75% # Bytes accessed per row activation
system.physmem.bytesPerActivate::14656-14659            2      0.00%     99.75% # Bytes accessed per row activation
system.physmem.bytesPerActivate::14720-14723            2      0.00%     99.76% # Bytes accessed per row activation
system.physmem.bytesPerActivate::14784-14787            1      0.00%     99.76% # Bytes accessed per row activation
system.physmem.bytesPerActivate::14848-14851            1      0.00%     99.76% # Bytes accessed per row activation
system.physmem.bytesPerActivate::14912-14915           25      0.04%     99.79% # Bytes accessed per row activation
system.physmem.bytesPerActivate::14976-14979            6      0.01%     99.80% # Bytes accessed per row activation
system.physmem.bytesPerActivate::15040-15043            8      0.01%     99.82% # Bytes accessed per row activation
system.physmem.bytesPerActivate::15104-15107            4      0.01%     99.82% # Bytes accessed per row activation
system.physmem.bytesPerActivate::15168-15171            3      0.00%     99.83% # Bytes accessed per row activation
system.physmem.bytesPerActivate::15232-15235            8      0.01%     99.84% # Bytes accessed per row activation
system.physmem.bytesPerActivate::15296-15299            3      0.00%     99.84% # Bytes accessed per row activation
system.physmem.bytesPerActivate::15360-15363           14      0.02%     99.86% # Bytes accessed per row activation
system.physmem.bytesPerActivate::15424-15427            1      0.00%     99.86% # Bytes accessed per row activation
system.physmem.bytesPerActivate::15488-15491            1      0.00%     99.86% # Bytes accessed per row activation
system.physmem.bytesPerActivate::15552-15555            2      0.00%     99.87% # Bytes accessed per row activation
system.physmem.bytesPerActivate::15616-15619            2      0.00%     99.87% # Bytes accessed per row activation
system.physmem.bytesPerActivate::15680-15683            5      0.01%     99.88% # Bytes accessed per row activation
system.physmem.bytesPerActivate::15744-15747            1      0.00%     99.88% # Bytes accessed per row activation
system.physmem.bytesPerActivate::15808-15811            4      0.01%     99.89% # Bytes accessed per row activation
system.physmem.bytesPerActivate::15872-15875            3      0.00%     99.89% # Bytes accessed per row activation
system.physmem.bytesPerActivate::15936-15939            5      0.01%     99.90% # Bytes accessed per row activation
system.physmem.bytesPerActivate::16000-16003            1      0.00%     99.90% # Bytes accessed per row activation
system.physmem.bytesPerActivate::16064-16067            3      0.00%     99.90% # Bytes accessed per row activation
system.physmem.bytesPerActivate::16128-16131            4      0.01%     99.91% # Bytes accessed per row activation
system.physmem.bytesPerActivate::16192-16195            2      0.00%     99.91% # Bytes accessed per row activation
system.physmem.bytesPerActivate::16256-16259           10      0.01%     99.93% # Bytes accessed per row activation
system.physmem.bytesPerActivate::16320-16323            9      0.01%     99.94% # Bytes accessed per row activation
system.physmem.bytesPerActivate::16384-16387           42      0.06%    100.00% # Bytes accessed per row activation
system.physmem.bytesPerActivate::total          68754                       # Bytes accessed per row activation
system.physmem.totQLat                     5103462500                       # Total ticks spent queuing
system.physmem.totMemAccLat                9310522500                       # Total ticks spent from burst creation until serviced by the DRAM
system.physmem.totBusLat                   1110285000                       # Total ticks spent in databus transfers
system.physmem.totBankLat                  3096775000                       # Total ticks spent accessing banks
system.physmem.avgQLat                       22982.67                       # Average queueing delay per DRAM burst
system.physmem.avgBankLat                    13945.86                       # Average bank access latency per DRAM burst
system.physmem.avgBusLat                      5000.00                       # Average bus latency per DRAM burst
system.physmem.avgMemAccLat                  41928.53                       # Average memory access latency per DRAM burst
system.physmem.avgRdBW                           2.77                       # Average DRAM read bandwidth in MiByte/s
system.physmem.avgWrBW                           1.85                       # Average achieved write bandwidth in MiByte/s
system.physmem.avgRdBWSys                        2.77                       # Average system read bandwidth in MiByte/s
system.physmem.avgWrBWSys                        1.85                       # Average system write bandwidth in MiByte/s
system.physmem.peakBW                        12800.00                       # Theoretical peak bandwidth in MiByte/s
system.physmem.busUtil                           0.04                       # Data bus utilization in percentage
system.physmem.busUtilRead                       0.02                       # Data bus utilization in percentage for reads
system.physmem.busUtilWrite                      0.01                       # Data bus utilization in percentage for writes
system.physmem.avgRdQLen                         0.00                       # Average read queue length when enqueuing
system.physmem.avgWrQLen                         8.57                       # Average write queue length when enqueuing
system.physmem.readRowHits                     193293                       # Number of row buffer hits during reads
system.physmem.writeRowHits                    108329                       # Number of row buffer hits during writes
system.physmem.readRowHitRate                   87.05                       # Row buffer hit rate for reads
system.physmem.writeRowHitRate                  73.04                       # Row buffer hit rate for writes
system.physmem.avgGap                     13857966.18                       # Average gap between requests
system.physmem.pageHitRate                      81.44                       # Row buffer hit rate, read and write combined
system.physmem.prechargeAllPercent               0.14                       # Percentage of time for which DRAM has all the banks in precharge state
system.membus.throughput                      5095991                       # Throughput (bytes/s)
system.membus.trans_dist::ReadReq              662317                       # Transaction distribution
system.membus.trans_dist::ReadResp             662311                       # Transaction distribution
system.membus.trans_dist::WriteReq              13762                       # Transaction distribution
system.membus.trans_dist::WriteResp             13762                       # Transaction distribution
system.membus.trans_dist::Writeback            148323                       # Transaction distribution
system.membus.trans_dist::UpgradeReq             2201                       # Transaction distribution
system.membus.trans_dist::UpgradeResp            1734                       # Transaction distribution
system.membus.trans_dist::ReadExReq            179351                       # Transaction distribution
system.membus.trans_dist::ReadExResp           179346                       # Transaction distribution
system.membus.trans_dist::MessageReq             1642                       # Transaction distribution
system.membus.trans_dist::MessageResp            1642                       # Transaction distribution
system.membus.trans_dist::BadAddressError            6                       # Transaction distribution
system.membus.pkt_count_system.apicbridge.master::system.cpu.interrupts.int_slave         3284                       # Packet count per connected master and slave (bytes)
system.membus.pkt_count_system.apicbridge.master::total         3284                       # Packet count per connected master and slave (bytes)
system.membus.pkt_count_system.cpu.l2cache.mem_side::system.bridge.slave       471038                       # Packet count per connected master and slave (bytes)
system.membus.pkt_count_system.cpu.l2cache.mem_side::system.cpu.interrupts.pio       775072                       # Packet count per connected master and slave (bytes)
system.membus.pkt_count_system.cpu.l2cache.mem_side::system.physmem.port       474374                       # Packet count per connected master and slave (bytes)
system.membus.pkt_count_system.cpu.l2cache.mem_side::system.membus.badaddr_responder.pio           12                       # Packet count per connected master and slave (bytes)
system.membus.pkt_count_system.cpu.l2cache.mem_side::total      1720496                       # Packet count per connected master and slave (bytes)
system.membus.pkt_count_system.iocache.mem_side::system.physmem.port       132379                       # Packet count per connected master and slave (bytes)
system.membus.pkt_count_system.iocache.mem_side::total       132379                       # Packet count per connected master and slave (bytes)
system.membus.pkt_count::total                1856159                       # Packet count per connected master and slave (bytes)
system.membus.tot_pkt_size_system.apicbridge.master::system.cpu.interrupts.int_slave         6568                       # Cumulative packet size per connected master and slave (bytes)
system.membus.tot_pkt_size_system.apicbridge.master::total         6568                       # Cumulative packet size per connected master and slave (bytes)
system.membus.tot_pkt_size_system.cpu.l2cache.mem_side::system.bridge.slave       241802                       # Cumulative packet size per connected master and slave (bytes)
system.membus.tot_pkt_size_system.cpu.l2cache.mem_side::system.cpu.interrupts.pio      1550141                       # Cumulative packet size per connected master and slave (bytes)
system.membus.tot_pkt_size_system.cpu.l2cache.mem_side::system.physmem.port     18286080                       # Cumulative packet size per connected master and slave (bytes)
system.membus.tot_pkt_size_system.cpu.l2cache.mem_side::total     20078023                       # Cumulative packet size per connected master and slave (bytes)
system.membus.tot_pkt_size_system.iocache.mem_side::system.physmem.port      5423872                       # Cumulative packet size per connected master and slave (bytes)
system.membus.tot_pkt_size_system.iocache.mem_side::total      5423872                       # Cumulative packet size per connected master and slave (bytes)
system.membus.tot_pkt_size::total            25508463                       # Cumulative packet size per connected master and slave (bytes)
system.membus.data_through_bus               25508463                       # Total data (bytes)
system.membus.snoop_data_through_bus           654016                       # Total snoop data (bytes)
system.membus.reqLayer0.occupancy           250556000                       # Layer occupancy (ticks)
system.membus.reqLayer0.utilization               0.0                       # Layer utilization (%)
system.membus.reqLayer1.occupancy           583258500                       # Layer occupancy (ticks)
system.membus.reqLayer1.utilization               0.0                       # Layer utilization (%)
system.membus.reqLayer2.occupancy             3284000                       # Layer occupancy (ticks)
system.membus.reqLayer2.utilization               0.0                       # Layer utilization (%)
system.membus.reqLayer3.occupancy          1605908499                       # Layer occupancy (ticks)
system.membus.reqLayer3.utilization               0.0                       # Layer utilization (%)
system.membus.reqLayer4.occupancy                8000                       # Layer occupancy (ticks)
system.membus.reqLayer4.utilization               0.0                       # Layer utilization (%)
system.membus.respLayer0.occupancy            1642000                       # Layer occupancy (ticks)
system.membus.respLayer0.utilization              0.0                       # Layer utilization (%)
system.membus.respLayer2.occupancy         3150989153                       # Layer occupancy (ticks)
system.membus.respLayer2.utilization              0.1                       # Layer utilization (%)
system.membus.respLayer4.occupancy          429464748                       # Layer occupancy (ticks)
system.membus.respLayer4.utilization              0.0                       # Layer utilization (%)
system.iocache.tags.replacements                47576                       # number of replacements
system.iocache.tags.tagsinuse                0.103980                       # Cycle average of tags in use
system.iocache.tags.total_refs                      0                       # Total number of references to valid blocks.
system.iocache.tags.sampled_refs                47592                       # Sample count of references to valid blocks.
system.iocache.tags.avg_refs                        0                       # Average number of references to valid blocks.
system.iocache.tags.warmup_cycle         4992951939000                       # Cycle when the warmup percentage was hit.
system.iocache.tags.occ_blocks::pc.south_bridge.ide     0.103980                       # Average occupied blocks per requestor
system.iocache.tags.occ_percent::pc.south_bridge.ide     0.006499                       # Average percentage of cache occupancy
system.iocache.tags.occ_percent::total       0.006499                       # Average percentage of cache occupancy
system.iocache.tags.occ_task_id_blocks::1023           16                       # Occupied blocks per task id
system.iocache.tags.age_task_id_blocks_1023::2           16                       # Occupied blocks per task id
system.iocache.tags.occ_task_id_percent::1023            1                       # Percentage of cache occupancy per task id
system.iocache.tags.tag_accesses               428679                       # Number of tag accesses
system.iocache.tags.data_accesses              428679                       # Number of data accesses
system.iocache.ReadReq_misses::pc.south_bridge.ide          911                       # number of ReadReq misses
system.iocache.ReadReq_misses::total              911                       # number of ReadReq misses
system.iocache.WriteReq_misses::pc.south_bridge.ide        46720                       # number of WriteReq misses
system.iocache.WriteReq_misses::total           46720                       # number of WriteReq misses
system.iocache.demand_misses::pc.south_bridge.ide        47631                       # number of demand (read+write) misses
system.iocache.demand_misses::total             47631                       # number of demand (read+write) misses
system.iocache.overall_misses::pc.south_bridge.ide        47631                       # number of overall misses
system.iocache.overall_misses::total            47631                       # number of overall misses
system.iocache.ReadReq_miss_latency::pc.south_bridge.ide    151022435                       # number of ReadReq miss cycles
system.iocache.ReadReq_miss_latency::total    151022435                       # number of ReadReq miss cycles
system.iocache.WriteReq_miss_latency::pc.south_bridge.ide  11480088301                       # number of WriteReq miss cycles
system.iocache.WriteReq_miss_latency::total  11480088301                       # number of WriteReq miss cycles
system.iocache.demand_miss_latency::pc.south_bridge.ide  11631110736                       # number of demand (read+write) miss cycles
system.iocache.demand_miss_latency::total  11631110736                       # number of demand (read+write) miss cycles
system.iocache.overall_miss_latency::pc.south_bridge.ide  11631110736                       # number of overall miss cycles
system.iocache.overall_miss_latency::total  11631110736                       # number of overall miss cycles
system.iocache.ReadReq_accesses::pc.south_bridge.ide          911                       # number of ReadReq accesses(hits+misses)
system.iocache.ReadReq_accesses::total            911                       # number of ReadReq accesses(hits+misses)
system.iocache.WriteReq_accesses::pc.south_bridge.ide        46720                       # number of WriteReq accesses(hits+misses)
system.iocache.WriteReq_accesses::total         46720                       # number of WriteReq accesses(hits+misses)
system.iocache.demand_accesses::pc.south_bridge.ide        47631                       # number of demand (read+write) accesses
system.iocache.demand_accesses::total           47631                       # number of demand (read+write) accesses
system.iocache.overall_accesses::pc.south_bridge.ide        47631                       # number of overall (read+write) accesses
system.iocache.overall_accesses::total          47631                       # number of overall (read+write) accesses
system.iocache.ReadReq_miss_rate::pc.south_bridge.ide            1                       # miss rate for ReadReq accesses
system.iocache.ReadReq_miss_rate::total             1                       # miss rate for ReadReq accesses
system.iocache.WriteReq_miss_rate::pc.south_bridge.ide            1                       # miss rate for WriteReq accesses
system.iocache.WriteReq_miss_rate::total            1                       # miss rate for WriteReq accesses
system.iocache.demand_miss_rate::pc.south_bridge.ide            1                       # miss rate for demand accesses
system.iocache.demand_miss_rate::total              1                       # miss rate for demand accesses
system.iocache.overall_miss_rate::pc.south_bridge.ide            1                       # miss rate for overall accesses
system.iocache.overall_miss_rate::total             1                       # miss rate for overall accesses
system.iocache.ReadReq_avg_miss_latency::pc.south_bridge.ide 165776.547750                       # average ReadReq miss latency
system.iocache.ReadReq_avg_miss_latency::total 165776.547750                       # average ReadReq miss latency
system.iocache.WriteReq_avg_miss_latency::pc.south_bridge.ide 245721.068086                       # average WriteReq miss latency
system.iocache.WriteReq_avg_miss_latency::total 245721.068086                       # average WriteReq miss latency
system.iocache.demand_avg_miss_latency::pc.south_bridge.ide 244192.033256                       # average overall miss latency
system.iocache.demand_avg_miss_latency::total 244192.033256                       # average overall miss latency
system.iocache.overall_avg_miss_latency::pc.south_bridge.ide 244192.033256                       # average overall miss latency
system.iocache.overall_avg_miss_latency::total 244192.033256                       # average overall miss latency
system.iocache.blocked_cycles::no_mshrs        172788                       # number of cycles access was blocked
system.iocache.blocked_cycles::no_targets            0                       # number of cycles access was blocked
system.iocache.blocked::no_mshrs                10383                       # number of cycles access was blocked
system.iocache.blocked::no_targets                  0                       # number of cycles access was blocked
system.iocache.avg_blocked_cycles::no_mshrs    16.641433                       # average number of cycles each access was blocked
system.iocache.avg_blocked_cycles::no_targets          nan                       # average number of cycles each access was blocked
system.iocache.fast_writes                          0                       # number of fast writes performed
system.iocache.cache_copies                         0                       # number of cache copies performed
system.iocache.writebacks::writebacks           46667                       # number of writebacks
system.iocache.writebacks::total                46667                       # number of writebacks
system.iocache.ReadReq_mshr_misses::pc.south_bridge.ide          911                       # number of ReadReq MSHR misses
system.iocache.ReadReq_mshr_misses::total          911                       # number of ReadReq MSHR misses
system.iocache.WriteReq_mshr_misses::pc.south_bridge.ide        46720                       # number of WriteReq MSHR misses
system.iocache.WriteReq_mshr_misses::total        46720                       # number of WriteReq MSHR misses
system.iocache.demand_mshr_misses::pc.south_bridge.ide        47631                       # number of demand (read+write) MSHR misses
system.iocache.demand_mshr_misses::total        47631                       # number of demand (read+write) MSHR misses
system.iocache.overall_mshr_misses::pc.south_bridge.ide        47631                       # number of overall MSHR misses
system.iocache.overall_mshr_misses::total        47631                       # number of overall MSHR misses
system.iocache.ReadReq_mshr_miss_latency::pc.south_bridge.ide    103624935                       # number of ReadReq MSHR miss cycles
system.iocache.ReadReq_mshr_miss_latency::total    103624935                       # number of ReadReq MSHR miss cycles
system.iocache.WriteReq_mshr_miss_latency::pc.south_bridge.ide   9049102305                       # number of WriteReq MSHR miss cycles
system.iocache.WriteReq_mshr_miss_latency::total   9049102305                       # number of WriteReq MSHR miss cycles
system.iocache.demand_mshr_miss_latency::pc.south_bridge.ide   9152727240                       # number of demand (read+write) MSHR miss cycles
system.iocache.demand_mshr_miss_latency::total   9152727240                       # number of demand (read+write) MSHR miss cycles
system.iocache.overall_mshr_miss_latency::pc.south_bridge.ide   9152727240                       # number of overall MSHR miss cycles
system.iocache.overall_mshr_miss_latency::total   9152727240                       # number of overall MSHR miss cycles
system.iocache.ReadReq_mshr_miss_rate::pc.south_bridge.ide            1                       # mshr miss rate for ReadReq accesses
system.iocache.ReadReq_mshr_miss_rate::total            1                       # mshr miss rate for ReadReq accesses
system.iocache.WriteReq_mshr_miss_rate::pc.south_bridge.ide            1                       # mshr miss rate for WriteReq accesses
system.iocache.WriteReq_mshr_miss_rate::total            1                       # mshr miss rate for WriteReq accesses
system.iocache.demand_mshr_miss_rate::pc.south_bridge.ide            1                       # mshr miss rate for demand accesses
system.iocache.demand_mshr_miss_rate::total            1                       # mshr miss rate for demand accesses
system.iocache.overall_mshr_miss_rate::pc.south_bridge.ide            1                       # mshr miss rate for overall accesses
system.iocache.overall_mshr_miss_rate::total            1                       # mshr miss rate for overall accesses
system.iocache.ReadReq_avg_mshr_miss_latency::pc.south_bridge.ide 113748.556531                       # average ReadReq mshr miss latency
system.iocache.ReadReq_avg_mshr_miss_latency::total 113748.556531                       # average ReadReq mshr miss latency
system.iocache.WriteReq_avg_mshr_miss_latency::pc.south_bridge.ide 193687.977419                       # average WriteReq mshr miss latency
system.iocache.WriteReq_avg_mshr_miss_latency::total 193687.977419                       # average WriteReq mshr miss latency
system.iocache.demand_avg_mshr_miss_latency::pc.south_bridge.ide 192159.040121                       # average overall mshr miss latency
system.iocache.demand_avg_mshr_miss_latency::total 192159.040121                       # average overall mshr miss latency
system.iocache.overall_avg_mshr_miss_latency::pc.south_bridge.ide 192159.040121                       # average overall mshr miss latency
system.iocache.overall_avg_mshr_miss_latency::total 192159.040121                       # average overall mshr miss latency
system.iocache.no_allocate_misses                   0                       # Number of misses that were no-allocate
system.pc.south_bridge.ide.disks0.dma_read_full_pages            0                       # Number of full page size DMA reads (not PRD).
system.pc.south_bridge.ide.disks0.dma_read_bytes        34816                       # Number of bytes transfered via DMA reads (not PRD).
system.pc.south_bridge.ide.disks0.dma_read_txs           31                       # Number of DMA read transactions (not PRD).
system.pc.south_bridge.ide.disks0.dma_write_full_pages          693                       # Number of full page size DMA writes.
system.pc.south_bridge.ide.disks0.dma_write_bytes      2985984                       # Number of bytes transfered via DMA writes.
system.pc.south_bridge.ide.disks0.dma_write_txs          812                       # Number of DMA write transactions.
system.pc.south_bridge.ide.disks1.dma_read_full_pages            0                       # Number of full page size DMA reads (not PRD).
system.pc.south_bridge.ide.disks1.dma_read_bytes            0                       # Number of bytes transfered via DMA reads (not PRD).
system.pc.south_bridge.ide.disks1.dma_read_txs            0                       # Number of DMA read transactions (not PRD).
system.pc.south_bridge.ide.disks1.dma_write_full_pages            1                       # Number of full page size DMA writes.
system.pc.south_bridge.ide.disks1.dma_write_bytes         4096                       # Number of bytes transfered via DMA writes.
system.pc.south_bridge.ide.disks1.dma_write_txs            1                       # Number of DMA write transactions.
system.iobus.throughput                        638147                       # Throughput (bytes/s)
system.iobus.trans_dist::ReadReq               225559                       # Transaction distribution
system.iobus.trans_dist::ReadResp              225559                       # Transaction distribution
system.iobus.trans_dist::WriteReq               57591                       # Transaction distribution
system.iobus.trans_dist::WriteResp              57591                       # Transaction distribution
system.iobus.trans_dist::MessageReq              1642                       # Transaction distribution
system.iobus.trans_dist::MessageResp             1642                       # Transaction distribution
system.iobus.pkt_count_system.bridge.master::system.pc.south_bridge.cmos.pio           44                       # Packet count per connected master and slave (bytes)
system.iobus.pkt_count_system.bridge.master::system.pc.south_bridge.dma1.pio            6                       # Packet count per connected master and slave (bytes)
system.iobus.pkt_count_system.bridge.master::system.pc.south_bridge.ide.pio        11134                       # Packet count per connected master and slave (bytes)
system.iobus.pkt_count_system.bridge.master::system.pc.south_bridge.ide-pciconf          180                       # Packet count per connected master and slave (bytes)
system.iobus.pkt_count_system.bridge.master::system.pc.south_bridge.keyboard.pio         1364                       # Packet count per connected master and slave (bytes)
system.iobus.pkt_count_system.bridge.master::system.pc.south_bridge.pic1.pio           78                       # Packet count per connected master and slave (bytes)
system.iobus.pkt_count_system.bridge.master::system.pc.south_bridge.pic2.pio           54                       # Packet count per connected master and slave (bytes)
system.iobus.pkt_count_system.bridge.master::system.pc.south_bridge.pit.pio           30                       # Packet count per connected master and slave (bytes)
system.iobus.pkt_count_system.bridge.master::system.pc.south_bridge.speaker.pio       427356                       # Packet count per connected master and slave (bytes)
system.iobus.pkt_count_system.bridge.master::system.pc.south_bridge.io_apic.pio         1210                       # Packet count per connected master and slave (bytes)
system.iobus.pkt_count_system.bridge.master::system.pc.i_dont_exist.pio          170                       # Packet count per connected master and slave (bytes)
system.iobus.pkt_count_system.bridge.master::system.pc.behind_pci.pio            2                       # Packet count per connected master and slave (bytes)
system.iobus.pkt_count_system.bridge.master::system.pc.com_1.pio        27236                       # Packet count per connected master and slave (bytes)
system.iobus.pkt_count_system.bridge.master::system.pc.fake_com_2.pio           12                       # Packet count per connected master and slave (bytes)
system.iobus.pkt_count_system.bridge.master::system.pc.fake_com_3.pio           12                       # Packet count per connected master and slave (bytes)
system.iobus.pkt_count_system.bridge.master::system.pc.fake_com_4.pio           12                       # Packet count per connected master and slave (bytes)
system.iobus.pkt_count_system.bridge.master::system.pc.fake_floppy.pio           10                       # Packet count per connected master and slave (bytes)
system.iobus.pkt_count_system.bridge.master::system.pc.pciconfig.pio         2128                       # Packet count per connected master and slave (bytes)
system.iobus.pkt_count_system.bridge.master::total       471038                       # Packet count per connected master and slave (bytes)
system.iobus.pkt_count_system.pc.south_bridge.ide.dma::system.iocache.cpu_side        95262                       # Packet count per connected master and slave (bytes)
system.iobus.pkt_count_system.pc.south_bridge.ide.dma::total        95262                       # Packet count per connected master and slave (bytes)
system.iobus.pkt_count_system.pc.south_bridge.io_apic.int_master::system.apicbridge.slave         3284                       # Packet count per connected master and slave (bytes)
system.iobus.pkt_count_system.pc.south_bridge.io_apic.int_master::total         3284                       # Packet count per connected master and slave (bytes)
system.iobus.pkt_count::total                  569584                       # Packet count per connected master and slave (bytes)
system.iobus.tot_pkt_size_system.bridge.master::system.pc.south_bridge.cmos.pio           22                       # Cumulative packet size per connected master and slave (bytes)
system.iobus.tot_pkt_size_system.bridge.master::system.pc.south_bridge.dma1.pio            3                       # Cumulative packet size per connected master and slave (bytes)
system.iobus.tot_pkt_size_system.bridge.master::system.pc.south_bridge.ide.pio         6712                       # Cumulative packet size per connected master and slave (bytes)
system.iobus.tot_pkt_size_system.bridge.master::system.pc.south_bridge.ide-pciconf          221                       # Cumulative packet size per connected master and slave (bytes)
system.iobus.tot_pkt_size_system.bridge.master::system.pc.south_bridge.keyboard.pio          682                       # Cumulative packet size per connected master and slave (bytes)
system.iobus.tot_pkt_size_system.bridge.master::system.pc.south_bridge.pic1.pio           39                       # Cumulative packet size per connected master and slave (bytes)
system.iobus.tot_pkt_size_system.bridge.master::system.pc.south_bridge.pic2.pio           27                       # Cumulative packet size per connected master and slave (bytes)
system.iobus.tot_pkt_size_system.bridge.master::system.pc.south_bridge.pit.pio           15                       # Cumulative packet size per connected master and slave (bytes)
system.iobus.tot_pkt_size_system.bridge.master::system.pc.south_bridge.speaker.pio       213678                       # Cumulative packet size per connected master and slave (bytes)
system.iobus.tot_pkt_size_system.bridge.master::system.pc.south_bridge.io_apic.pio         2420                       # Cumulative packet size per connected master and slave (bytes)
system.iobus.tot_pkt_size_system.bridge.master::system.pc.i_dont_exist.pio           85                       # Cumulative packet size per connected master and slave (bytes)
system.iobus.tot_pkt_size_system.bridge.master::system.pc.behind_pci.pio            1                       # Cumulative packet size per connected master and slave (bytes)
system.iobus.tot_pkt_size_system.bridge.master::system.pc.com_1.pio        13618                       # Cumulative packet size per connected master and slave (bytes)
system.iobus.tot_pkt_size_system.bridge.master::system.pc.fake_com_2.pio            6                       # Cumulative packet size per connected master and slave (bytes)
system.iobus.tot_pkt_size_system.bridge.master::system.pc.fake_com_3.pio            6                       # Cumulative packet size per connected master and slave (bytes)
system.iobus.tot_pkt_size_system.bridge.master::system.pc.fake_com_4.pio            6                       # Cumulative packet size per connected master and slave (bytes)
system.iobus.tot_pkt_size_system.bridge.master::system.pc.fake_floppy.pio            5                       # Cumulative packet size per connected master and slave (bytes)
system.iobus.tot_pkt_size_system.bridge.master::system.pc.pciconfig.pio         4256                       # Cumulative packet size per connected master and slave (bytes)
system.iobus.tot_pkt_size_system.bridge.master::total       241802                       # Cumulative packet size per connected master and slave (bytes)
system.iobus.tot_pkt_size_system.pc.south_bridge.ide.dma::system.iocache.cpu_side      3027832                       # Cumulative packet size per connected master and slave (bytes)
system.iobus.tot_pkt_size_system.pc.south_bridge.ide.dma::total      3027832                       # Cumulative packet size per connected master and slave (bytes)
system.iobus.tot_pkt_size_system.pc.south_bridge.io_apic.int_master::system.apicbridge.slave         6568                       # Cumulative packet size per connected master and slave (bytes)
system.iobus.tot_pkt_size_system.pc.south_bridge.io_apic.int_master::total         6568                       # Cumulative packet size per connected master and slave (bytes)
system.iobus.tot_pkt_size::total              3276202                       # Cumulative packet size per connected master and slave (bytes)
system.iobus.data_through_bus                 3276202                       # Total data (bytes)
system.iobus.reqLayer0.occupancy              3916600                       # Layer occupancy (ticks)
system.iobus.reqLayer0.utilization                0.0                       # Layer utilization (%)
system.iobus.reqLayer1.occupancy                34000                       # Layer occupancy (ticks)
system.iobus.reqLayer1.utilization                0.0                       # Layer utilization (%)
system.iobus.reqLayer2.occupancy                 6000                       # Layer occupancy (ticks)
system.iobus.reqLayer2.utilization                0.0                       # Layer utilization (%)
system.iobus.reqLayer3.occupancy              8851000                       # Layer occupancy (ticks)
system.iobus.reqLayer3.utilization                0.0                       # Layer utilization (%)
system.iobus.reqLayer4.occupancy               122000                       # Layer occupancy (ticks)
system.iobus.reqLayer4.utilization                0.0                       # Layer utilization (%)
system.iobus.reqLayer5.occupancy               891000                       # Layer occupancy (ticks)
system.iobus.reqLayer5.utilization                0.0                       # Layer utilization (%)
system.iobus.reqLayer6.occupancy                70000                       # Layer occupancy (ticks)
system.iobus.reqLayer6.utilization                0.0                       # Layer utilization (%)
system.iobus.reqLayer7.occupancy                50000                       # Layer occupancy (ticks)
system.iobus.reqLayer7.utilization                0.0                       # Layer utilization (%)
system.iobus.reqLayer8.occupancy                26000                       # Layer occupancy (ticks)
system.iobus.reqLayer8.utilization                0.0                       # Layer utilization (%)
system.iobus.reqLayer9.occupancy            213679000                       # Layer occupancy (ticks)
system.iobus.reqLayer9.utilization                0.0                       # Layer utilization (%)
system.iobus.reqLayer10.occupancy             1014000                       # Layer occupancy (ticks)
system.iobus.reqLayer10.utilization               0.0                       # Layer utilization (%)
system.iobus.reqLayer11.occupancy              170000                       # Layer occupancy (ticks)
system.iobus.reqLayer11.utilization               0.0                       # Layer utilization (%)
system.iobus.reqLayer12.occupancy                2000                       # Layer occupancy (ticks)
system.iobus.reqLayer12.utilization               0.0                       # Layer utilization (%)
system.iobus.reqLayer13.occupancy            20374000                       # Layer occupancy (ticks)
system.iobus.reqLayer13.utilization               0.0                       # Layer utilization (%)
system.iobus.reqLayer14.occupancy                9000                       # Layer occupancy (ticks)
system.iobus.reqLayer14.utilization               0.0                       # Layer utilization (%)
system.iobus.reqLayer15.occupancy                9000                       # Layer occupancy (ticks)
[...]
system.cpu.l2cache.ReadExReq_accesses::total       288000                       # number of ReadExReq accesses(hits+misses)
system.cpu.l2cache.demand_accesses::cpu.dtb.walker        64157                       # number of demand (read+write) accesses
system.cpu.l2cache.demand_accesses::cpu.itb.walker         7647                       # number of demand (read+write) accesses
system.cpu.l2cache.demand_accesses::cpu.inst       958192                       # number of demand (read+write) accesses
system.cpu.l2cache.demand_accesses::cpu.data      1656804                       # number of demand (read+write) accesses
system.cpu.l2cache.demand_accesses::total      2686800                       # number of demand (read+write) accesses
system.cpu.l2cache.overall_accesses::cpu.dtb.walker        64157                       # number of overall (read+write) accesses
system.cpu.l2cache.overall_accesses::cpu.itb.walker         7647                       # number of overall (read+write) accesses
system.cpu.l2cache.overall_accesses::cpu.inst       958192                       # number of overall (read+write) accesses
system.cpu.l2cache.overall_accesses::cpu.data      1656804                       # number of overall (read+write) accesses
system.cpu.l2cache.overall_accesses::total      2686800                       # number of overall (read+write) accesses
system.cpu.l2cache.ReadReq_miss_rate::cpu.dtb.walker     0.000951                       # miss rate for ReadReq accesses
system.cpu.l2cache.ReadReq_miss_rate::cpu.itb.walker     0.000654                       # miss rate for ReadReq accesses
system.cpu.l2cache.ReadReq_miss_rate::cpu.inst     0.016787                       # miss rate for ReadReq accesses
system.cpu.l2cache.ReadReq_miss_rate::cpu.data     0.026274                       # miss rate for ReadReq accesses
system.cpu.l2cache.ReadReq_miss_rate::total     0.021725                       # miss rate for ReadReq accesses
system.cpu.l2cache.UpgradeReq_miss_rate::cpu.data     0.819617                       # miss rate for UpgradeReq accesses
system.cpu.l2cache.UpgradeReq_miss_rate::total     0.819617                       # miss rate for UpgradeReq accesses
system.cpu.l2cache.ReadExReq_miss_rate::cpu.data     0.461479                       # miss rate for ReadExReq accesses
system.cpu.l2cache.ReadExReq_miss_rate::total     0.461479                       # miss rate for ReadExReq accesses
system.cpu.l2cache.demand_miss_rate::cpu.dtb.walker     0.000951                       # miss rate for demand accesses
system.cpu.l2cache.demand_miss_rate::cpu.itb.walker     0.000654                       # miss rate for demand accesses
system.cpu.l2cache.demand_miss_rate::cpu.inst     0.016787                       # miss rate for demand accesses
system.cpu.l2cache.demand_miss_rate::cpu.data     0.101925                       # miss rate for demand accesses
system.cpu.l2cache.demand_miss_rate::total     0.068863                       # miss rate for demand accesses
system.cpu.l2cache.overall_miss_rate::cpu.dtb.walker     0.000951                       # miss rate for overall accesses
system.cpu.l2cache.overall_miss_rate::cpu.itb.walker     0.000654                       # miss rate for overall accesses
system.cpu.l2cache.overall_miss_rate::cpu.inst     0.016787                       # miss rate for overall accesses
system.cpu.l2cache.overall_miss_rate::cpu.data     0.101925                       # miss rate for overall accesses
system.cpu.l2cache.overall_miss_rate::total     0.068863                       # miss rate for overall accesses
system.cpu.l2cache.ReadReq_avg_miss_latency::cpu.dtb.walker 97086.049180                       # average ReadReq miss latency
system.cpu.l2cache.ReadReq_avg_miss_latency::cpu.itb.walker        75100                       # average ReadReq miss latency
system.cpu.l2cache.ReadReq_avg_miss_latency::cpu.inst 80398.103202                       # average ReadReq miss latency
system.cpu.l2cache.ReadReq_avg_miss_latency::cpu.data 81174.262985                       # average ReadReq miss latency
system.cpu.l2cache.ReadReq_avg_miss_latency::total 80952.747443                       # average ReadReq miss latency
system.cpu.l2cache.UpgradeReq_avg_miss_latency::cpu.data 12186.588721                       # average UpgradeReq miss latency
system.cpu.l2cache.UpgradeReq_avg_miss_latency::total 12186.588721                       # average UpgradeReq miss latency
system.cpu.l2cache.ReadExReq_avg_miss_latency::cpu.data 71140.969219                       # average ReadExReq miss latency
system.cpu.l2cache.ReadExReq_avg_miss_latency::total 71140.969219                       # average ReadExReq miss latency
system.cpu.l2cache.demand_avg_miss_latency::cpu.dtb.walker 97086.049180                       # average overall miss latency
system.cpu.l2cache.demand_avg_miss_latency::cpu.itb.walker        75100                       # average overall miss latency
system.cpu.l2cache.demand_avg_miss_latency::cpu.inst 80398.103202                       # average overall miss latency
system.cpu.l2cache.demand_avg_miss_latency::cpu.data 73277.745301                       # average overall miss latency
system.cpu.l2cache.demand_avg_miss_latency::total 73904.659947                       # average overall miss latency
system.cpu.l2cache.overall_avg_miss_latency::cpu.dtb.walker 97086.049180                       # average overall miss latency
system.cpu.l2cache.overall_avg_miss_latency::cpu.itb.walker        75100                       # average overall miss latency
system.cpu.l2cache.overall_avg_miss_latency::cpu.inst 80398.103202                       # average overall miss latency
system.cpu.l2cache.overall_avg_miss_latency::cpu.data 73277.745301                       # average overall miss latency
system.cpu.l2cache.overall_avg_miss_latency::total 73904.659947                       # average overall miss latency
system.cpu.l2cache.blocked_cycles::no_mshrs            0                       # number of cycles access was blocked
system.cpu.l2cache.blocked_cycles::no_targets            0                       # number of cycles access was blocked
system.cpu.l2cache.blocked::no_mshrs                0                       # number of cycles access was blocked
system.cpu.l2cache.blocked::no_targets              0                       # number of cycles access was blocked
system.cpu.l2cache.avg_blocked_cycles::no_mshrs          nan                       # average number of cycles each access was blocked
system.cpu.l2cache.avg_blocked_cycles::no_targets          nan                       # average number of cycles each access was blocked
system.cpu.l2cache.fast_writes                      0                       # number of fast writes performed
system.cpu.l2cache.cache_copies                     0                       # number of cache copies performed
system.cpu.l2cache.writebacks::writebacks       101656                       # number of writebacks
system.cpu.l2cache.writebacks::total           101656                       # number of writebacks
system.cpu.l2cache.ReadReq_mshr_hits::cpu.inst            1                       # number of ReadReq MSHR hits
system.cpu.l2cache.ReadReq_mshr_hits::cpu.data            1                       # number of ReadReq MSHR hits
system.cpu.l2cache.ReadReq_mshr_hits::total            2                       # number of ReadReq MSHR hits
system.cpu.l2cache.demand_mshr_hits::cpu.inst            1                       # number of demand (read+write) MSHR hits
system.cpu.l2cache.demand_mshr_hits::cpu.data            1                       # number of demand (read+write) MSHR hits
system.cpu.l2cache.demand_mshr_hits::total            2                       # number of demand (read+write) MSHR hits
system.cpu.l2cache.overall_mshr_hits::cpu.inst            1                       # number of overall MSHR hits
system.cpu.l2cache.overall_mshr_hits::cpu.data            1                       # number of overall MSHR hits
system.cpu.l2cache.overall_mshr_hits::total            2                       # number of overall MSHR hits
system.cpu.l2cache.ReadReq_mshr_misses::cpu.dtb.walker           61                       # number of ReadReq MSHR misses
system.cpu.l2cache.ReadReq_mshr_misses::cpu.itb.walker            5                       # number of ReadReq MSHR misses
system.cpu.l2cache.ReadReq_mshr_misses::cpu.inst        16084                       # number of ReadReq MSHR misses
system.cpu.l2cache.ReadReq_mshr_misses::cpu.data        35963                       # number of ReadReq MSHR misses
system.cpu.l2cache.ReadReq_mshr_misses::total        52113                       # number of ReadReq MSHR misses
system.cpu.l2cache.UpgradeReq_mshr_misses::cpu.data         1454                       # number of UpgradeReq MSHR misses
system.cpu.l2cache.UpgradeReq_mshr_misses::total         1454                       # number of UpgradeReq MSHR misses
system.cpu.l2cache.ReadExReq_mshr_misses::cpu.data       132906                       # number of ReadExReq MSHR misses
system.cpu.l2cache.ReadExReq_mshr_misses::total       132906                       # number of ReadExReq MSHR misses
system.cpu.l2cache.demand_mshr_misses::cpu.dtb.walker           61                       # number of demand (read+write) MSHR misses
system.cpu.l2cache.demand_mshr_misses::cpu.itb.walker            5                       # number of demand (read+write) MSHR misses
system.cpu.l2cache.demand_mshr_misses::cpu.inst        16084                       # number of demand (read+write) MSHR misses
system.cpu.l2cache.demand_mshr_misses::cpu.data       168869                       # number of demand (read+write) MSHR misses
system.cpu.l2cache.demand_mshr_misses::total       185019                       # number of demand (read+write) MSHR misses
system.cpu.l2cache.overall_mshr_misses::cpu.dtb.walker           61                       # number of overall MSHR misses
system.cpu.l2cache.overall_mshr_misses::cpu.itb.walker            5                       # number of overall MSHR misses
system.cpu.l2cache.overall_mshr_misses::cpu.inst        16084                       # number of overall MSHR misses
system.cpu.l2cache.overall_mshr_misses::cpu.data       168869                       # number of overall MSHR misses
system.cpu.l2cache.overall_mshr_misses::total       185019                       # number of overall MSHR misses
system.cpu.l2cache.ReadReq_mshr_miss_latency::cpu.dtb.walker      5166251                       # number of ReadReq MSHR miss cycles
system.cpu.l2cache.ReadReq_mshr_miss_latency::cpu.itb.walker       312500                       # number of ReadReq MSHR miss cycles
system.cpu.l2cache.ReadReq_mshr_miss_latency::cpu.inst   1091253760                       # number of ReadReq MSHR miss cycles
system.cpu.l2cache.ReadReq_mshr_miss_latency::cpu.data   2471371556                       # number of ReadReq MSHR miss cycles
system.cpu.l2cache.ReadReq_mshr_miss_latency::total   3568104067                       # number of ReadReq MSHR miss cycles
system.cpu.l2cache.UpgradeReq_mshr_miss_latency::cpu.data     15558435                       # number of UpgradeReq MSHR miss cycles
system.cpu.l2cache.UpgradeReq_mshr_miss_latency::total     15558435                       # number of UpgradeReq MSHR miss cycles
system.cpu.l2cache.ReadExReq_mshr_miss_latency::cpu.data   7786682845                       # number of ReadExReq MSHR miss cycles
system.cpu.l2cache.ReadExReq_mshr_miss_latency::total   7786682845                       # number of ReadExReq MSHR miss cycles
system.cpu.l2cache.demand_mshr_miss_latency::cpu.dtb.walker      5166251                       # number of demand (read+write) MSHR miss cycles
system.cpu.l2cache.demand_mshr_miss_latency::cpu.itb.walker       312500                       # number of demand (read+write) MSHR miss cycles
system.cpu.l2cache.demand_mshr_miss_latency::cpu.inst   1091253760                       # number of demand (read+write) MSHR miss cycles
system.cpu.l2cache.demand_mshr_miss_latency::cpu.data  10258054401                       # number of demand (read+write) MSHR miss cycles
system.cpu.l2cache.demand_mshr_miss_latency::total  11354786912                       # number of demand (read+write) MSHR miss cycles
system.cpu.l2cache.overall_mshr_miss_latency::cpu.dtb.walker      5166251                       # number of overall MSHR miss cycles
system.cpu.l2cache.overall_mshr_miss_latency::cpu.itb.walker       312500                       # number of overall MSHR miss cycles
system.cpu.l2cache.overall_mshr_miss_latency::cpu.inst   1091253760                       # number of overall MSHR miss cycles
system.cpu.l2cache.overall_mshr_miss_latency::cpu.data  10258054401                       # number of overall MSHR miss cycles
system.cpu.l2cache.overall_mshr_miss_latency::total  11354786912                       # number of overall MSHR miss cycles
system.cpu.l2cache.ReadReq_mshr_uncacheable_latency::cpu.data  89250274500                       # number of ReadReq MSHR uncacheable cycles
system.cpu.l2cache.ReadReq_mshr_uncacheable_latency::total  89250274500                       # number of ReadReq MSHR uncacheable cycles
system.cpu.l2cache.WriteReq_mshr_uncacheable_latency::cpu.data   2370476500                       # number of WriteReq MSHR uncacheable cycles
system.cpu.l2cache.WriteReq_mshr_uncacheable_latency::total   2370476500                       # number of WriteReq MSHR uncacheable cycles
system.cpu.l2cache.overall_mshr_uncacheable_latency::cpu.data  91620751000                       # number of overall MSHR uncacheable cycles
system.cpu.l2cache.overall_mshr_uncacheable_latency::total  91620751000                       # number of overall MSHR uncacheable cycles
system.cpu.l2cache.ReadReq_mshr_miss_rate::cpu.dtb.walker     0.000951                       # mshr miss rate for ReadReq accesses
system.cpu.l2cache.ReadReq_mshr_miss_rate::cpu.itb.walker     0.000654                       # mshr miss rate for ReadReq accesses
system.cpu.l2cache.ReadReq_mshr_miss_rate::cpu.inst     0.016786                       # mshr miss rate for ReadReq accesses
system.cpu.l2cache.ReadReq_mshr_miss_rate::cpu.data     0.026273                       # mshr miss rate for ReadReq accesses
system.cpu.l2cache.ReadReq_mshr_miss_rate::total     0.021725                       # mshr miss rate for ReadReq accesses
system.cpu.l2cache.UpgradeReq_mshr_miss_rate::cpu.data     0.819617                       # mshr miss rate for UpgradeReq accesses
system.cpu.l2cache.UpgradeReq_mshr_miss_rate::total     0.819617                       # mshr miss rate for UpgradeReq accesses
system.cpu.l2cache.ReadExReq_mshr_miss_rate::cpu.data     0.461479                       # mshr miss rate for ReadExReq accesses
system.cpu.l2cache.ReadExReq_mshr_miss_rate::total     0.461479                       # mshr miss rate for ReadExReq accesses
system.cpu.l2cache.demand_mshr_miss_rate::cpu.dtb.walker     0.000951                       # mshr miss rate for demand accesses
system.cpu.l2cache.demand_mshr_miss_rate::cpu.itb.walker     0.000654                       # mshr miss rate for demand accesses
system.cpu.l2cache.demand_mshr_miss_rate::cpu.inst     0.016786                       # mshr miss rate for demand accesses
system.cpu.l2cache.demand_mshr_miss_rate::cpu.data     0.101925                       # mshr miss rate for demand accesses
system.cpu.l2cache.demand_mshr_miss_rate::total     0.068862                       # mshr miss rate for demand accesses
system.cpu.l2cache.overall_mshr_miss_rate::cpu.dtb.walker     0.000951                       # mshr miss rate for overall accesses
system.cpu.l2cache.overall_mshr_miss_rate::cpu.itb.walker     0.000654                       # mshr miss rate for overall accesses
system.cpu.l2cache.overall_mshr_miss_rate::cpu.inst     0.016786                       # mshr miss rate for overall accesses
system.cpu.l2cache.overall_mshr_miss_rate::cpu.data     0.101925                       # mshr miss rate for overall accesses
system.cpu.l2cache.overall_mshr_miss_rate::total     0.068862                       # mshr miss rate for overall accesses
system.cpu.l2cache.ReadReq_avg_mshr_miss_latency::cpu.dtb.walker 84692.639344                       # average ReadReq mshr miss latency
system.cpu.l2cache.ReadReq_avg_mshr_miss_latency::cpu.itb.walker        62500                       # average ReadReq mshr miss latency
system.cpu.l2cache.ReadReq_avg_mshr_miss_latency::cpu.inst 67847.162397                       # average ReadReq mshr miss latency
system.cpu.l2cache.ReadReq_avg_mshr_miss_latency::cpu.data 68719.838612                       # average ReadReq mshr miss latency
system.cpu.l2cache.ReadReq_avg_mshr_miss_latency::total 68468.598373                       # average ReadReq mshr miss latency
system.cpu.l2cache.UpgradeReq_avg_mshr_miss_latency::cpu.data 10700.436726                       # average UpgradeReq mshr miss latency
system.cpu.l2cache.UpgradeReq_avg_mshr_miss_latency::total 10700.436726                       # average UpgradeReq mshr miss latency
system.cpu.l2cache.ReadExReq_avg_mshr_miss_latency::cpu.data 58587.895543                       # average ReadExReq mshr miss latency
system.cpu.l2cache.ReadExReq_avg_mshr_miss_latency::total 58587.895543                       # average ReadExReq mshr miss latency
system.cpu.l2cache.demand_avg_mshr_miss_latency::cpu.dtb.walker 84692.639344                       # average overall mshr miss latency
system.cpu.l2cache.demand_avg_mshr_miss_latency::cpu.itb.walker        62500                       # average overall mshr miss latency
system.cpu.l2cache.demand_avg_mshr_miss_latency::cpu.inst 67847.162397                       # average overall mshr miss latency
system.cpu.l2cache.demand_avg_mshr_miss_latency::cpu.data 60745.633604                       # average overall mshr miss latency
system.cpu.l2cache.demand_avg_mshr_miss_latency::total 61370.923592                       # average overall mshr miss latency
system.cpu.l2cache.overall_avg_mshr_miss_latency::cpu.dtb.walker 84692.639344                       # average overall mshr miss latency
system.cpu.l2cache.overall_avg_mshr_miss_latency::cpu.itb.walker        62500                       # average overall mshr miss latency
system.cpu.l2cache.overall_avg_mshr_miss_latency::cpu.inst 67847.162397                       # average overall mshr miss latency
system.cpu.l2cache.overall_avg_mshr_miss_latency::cpu.data 60745.633604                       # average overall mshr miss latency
system.cpu.l2cache.overall_avg_mshr_miss_latency::total 61370.923592                       # average overall mshr miss latency
system.cpu.l2cache.ReadReq_avg_mshr_uncacheable_latency::cpu.data          inf                       # average ReadReq mshr uncacheable latency
system.cpu.l2cache.ReadReq_avg_mshr_uncacheable_latency::total          inf                       # average ReadReq mshr uncacheable latency
system.cpu.l2cache.WriteReq_avg_mshr_uncacheable_latency::cpu.data          inf                       # average WriteReq mshr uncacheable latency
system.cpu.l2cache.WriteReq_avg_mshr_uncacheable_latency::total          inf                       # average WriteReq mshr uncacheable latency
system.cpu.l2cache.overall_avg_mshr_uncacheable_latency::cpu.data          inf                       # average overall mshr uncacheable latency
system.cpu.l2cache.overall_avg_mshr_uncacheable_latency::total          inf                       # average overall mshr uncacheable latency
system.cpu.l2cache.no_allocate_misses               0                       # Number of misses that were no-allocate
system.cpu.kern.inst.arm                            0                       # number of arm instructions executed
system.cpu.kern.inst.quiesce                        0                       # number of quiesce instructions executed

---------- End Simulation Statistics   ----------
