
---------- Begin Simulation Statistics ----------
sim_seconds                                  5.125946                       # Number of seconds simulated
sim_ticks                                5125946039500                       # Number of ticks simulated
final_tick                               5125946039500                       # Number of ticks from beginning of simulation (restored from checkpoints and never reset)
sim_freq                                 1000000000000                       # Frequency of simulated ticks
host_inst_rate                                 214937                       # Simulator instruction rate (inst/s)
host_op_rate                                   424847                       # Simulator op (including micro ops) rate (op/s)
host_tick_rate                             2699457200                       # Simulator tick rate (ticks/s)
host_mem_usage                                 751580                       # Number of bytes of host memory used
host_seconds                                  1898.88                       # Real time elapsed on the host
sim_insts                                   408140259                       # Number of instructions simulated
sim_ops                                     806733017                       # Number of ops (including micro ops) simulated
system.voltage_domain.voltage                       1                       # Voltage in Volts
system.clk_domain.clock                          1000                       # Clock period in ticks
system.physmem.bytes_read::cpu.dtb.walker         4352                       # Number of bytes read from this memory
system.physmem.bytes_read::cpu.itb.walker          320                       # Number of bytes read from this memory
system.physmem.bytes_read::cpu.inst           1045568                       # Number of bytes read from this memory
system.physmem.bytes_read::cpu.data          10796928                       # Number of bytes read from this memory
system.physmem.bytes_read::pc.south_bridge.ide        28352                       # Number of bytes read from this memory
system.physmem.bytes_read::total             11875520                       # Number of bytes read from this memory
system.physmem.bytes_inst_read::cpu.inst      1045568                       # Number of instructions bytes read from this memory
system.physmem.bytes_inst_read::total         1045568                       # Number of instructions bytes read from this memory
system.physmem.bytes_written::writebacks      9590656                       # Number of bytes written to this memory
system.physmem.bytes_written::total           9590656                       # Number of bytes written to this memory
system.physmem.num_reads::cpu.dtb.walker           68                       # Number of read requests responded to by this memory
system.physmem.num_reads::cpu.itb.walker            5                       # Number of read requests responded to by this memory
system.physmem.num_reads::cpu.inst              16337                       # Number of read requests responded to by this memory
system.physmem.num_reads::cpu.data             168702                       # Number of read requests responded to by this memory
system.physmem.num_reads::pc.south_bridge.ide          443                       # Number of read requests responded to by this memory
system.physmem.num_reads::total                185555                       # Number of read requests responded to by this memory
system.physmem.num_writes::writebacks          149854                       # Number of write requests responded to by this memory
system.physmem.num_writes::total               149854                       # Number of write requests responded to by this memory
system.physmem.bw_read::cpu.dtb.walker            849                       # Total read bandwidth from this memory (bytes/s)
system.physmem.bw_read::cpu.itb.walker             62                       # Total read bandwidth from this memory (bytes/s)
system.physmem.bw_read::cpu.inst               203976                       # Total read bandwidth from this memory (bytes/s)
system.physmem.bw_read::cpu.data              2106329                       # Total read bandwidth from this memory (bytes/s)
system.physmem.bw_read::pc.south_bridge.ide         5531                       # Total read bandwidth from this memory (bytes/s)
system.physmem.bw_read::total                 2316747                       # Total read bandwidth from this memory (bytes/s)
system.physmem.bw_inst_read::cpu.inst          203976                       # Instruction read bandwidth from this memory (bytes/s)
system.physmem.bw_inst_read::total             203976                       # Instruction read bandwidth from this memory (bytes/s)
system.physmem.bw_write::writebacks           1871002                       # Write bandwidth from this memory (bytes/s)
system.physmem.bw_write::total                1871002                       # Write bandwidth from this memory (bytes/s)
system.physmem.bw_total::writebacks           1871002                       # Total bandwidth to/from this memory (bytes/s)
system.physmem.bw_total::cpu.dtb.walker           849                       # Total bandwidth to/from this memory (bytes/s)
system.physmem.bw_total::cpu.itb.walker            62                       # Total bandwidth to/from this memory (bytes/s)
system.physmem.bw_total::cpu.inst              203976                       # Total bandwidth to/from this memory (bytes/s)
system.physmem.bw_total::cpu.data             2106329                       # Total bandwidth to/from this memory (bytes/s)
system.physmem.bw_total::pc.south_bridge.ide         5531                       # Total bandwidth to/from this memory (bytes/s)
system.physmem.bw_total::total                4187749                       # Total bandwidth to/from this memory (bytes/s)
system.physmem.readReqs                        185555                       # Number of read requests accepted
system.physmem.writeReqs                       196574                       # Number of write requests accepted
system.physmem.readBursts                      185555                       # Number of DRAM read bursts, including those serviced by the write queue
system.physmem.writeBursts                     196574                       # Number of DRAM write bursts, including those merged in the write queue
system.physmem.bytesReadDRAM                 11866560                       # Total number of bytes read from DRAM
system.physmem.bytesReadWrQ                      8960                       # Total number of bytes read from write queue
system.physmem.bytesWritten                  12447744                       # Total number of bytes written to DRAM
system.physmem.bytesReadSys                  11875520                       # Total read bytes from the system interface side
system.physmem.bytesWrittenSys               12580736                       # Total written bytes from the system interface side
system.physmem.servicedByWrQ                      140                       # Number of DRAM read bursts serviced by the write queue
system.physmem.mergedWrBursts                    2049                       # Number of DRAM write bursts merged with an existing one
system.physmem.neitherReadNorWriteReqs           1754                       # Number of requests that are neither read nor write
system.physmem.perBankRdBursts::0               11700                       # Per bank write bursts
system.physmem.perBankRdBursts::1               10942                       # Per bank write bursts
system.physmem.perBankRdBursts::2               11772                       # Per bank write bursts
system.physmem.perBankRdBursts::3               11534                       # Per bank write bursts
system.physmem.perBankRdBursts::4               11556                       # Per bank write bursts
system.physmem.perBankRdBursts::5               11202                       # Per bank write bursts
system.physmem.perBankRdBursts::6               11589                       # Per bank write bursts
system.physmem.perBankRdBursts::7               11470                       # Per bank write bursts
system.physmem.perBankRdBursts::8               10957                       # Per bank write bursts
system.physmem.perBankRdBursts::9               11574                       # Per bank write bursts
system.physmem.perBankRdBursts::10              11037                       # Per bank write bursts
system.physmem.perBankRdBursts::11              11773                       # Per bank write bursts
system.physmem.perBankRdBursts::12              12032                       # Per bank write bursts
system.physmem.perBankRdBursts::13              13037                       # Per bank write bursts
system.physmem.perBankRdBursts::14              11759                       # Per bank write bursts
system.physmem.perBankRdBursts::15              11481                       # Per bank write bursts
system.physmem.perBankWrBursts::0               13445                       # Per bank write bursts
system.physmem.perBankWrBursts::1               12349                       # Per bank write bursts
system.physmem.perBankWrBursts::2               11384                       # Per bank write bursts
system.physmem.perBankWrBursts::3               11463                       # Per bank write bursts
system.physmem.perBankWrBursts::4               12267                       # Per bank write bursts
system.physmem.perBankWrBursts::5               12371                       # Per bank write bursts
system.physmem.perBankWrBursts::6               11486                       # Per bank write bursts
system.physmem.perBankWrBursts::7               11359                       # Per bank write bursts
system.physmem.perBankWrBursts::8               11596                       # Per bank write bursts
system.physmem.perBankWrBursts::9               12338                       # Per bank write bursts
system.physmem.perBankWrBursts::10              11770                       # Per bank write bursts
system.physmem.perBankWrBursts::11              12080                       # Per bank write bursts
system.physmem.perBankWrBursts::12              12282                       # Per bank write bursts
system.physmem.perBankWrBursts::13              12669                       # Per bank write bursts
system.physmem.perBankWrBursts::14              12453                       # Per bank write bursts
system.physmem.perBankWrBursts::15              13184                       # Per bank write bursts
system.physmem.numRdRetry                           0                       # Number of times read queue was full causing retry
system.physmem.numWrRetry                           0                       # Number of times write queue was full causing retry
system.physmem.totGap                    5125945988000                       # Total gap between requests
system.physmem.readPktSize::0                       0                       # Read request sizes (log2)
system.physmem.readPktSize::1                       0                       # Read request sizes (log2)
system.physmem.readPktSize::2                       0                       # Read request sizes (log2)
system.physmem.readPktSize::3                       0                       # Read request sizes (log2)
system.physmem.readPktSize::4                       0                       # Read request sizes (log2)
system.physmem.readPktSize::5                       0                       # Read request sizes (log2)
system.physmem.readPktSize::6                  185555                       # Read request sizes (log2)
system.physmem.writePktSize::0                      0                       # Write request sizes (log2)
system.physmem.writePktSize::1                      0                       # Write request sizes (log2)
system.physmem.writePktSize::2                      0                       # Write request sizes (log2)
system.physmem.writePktSize::3                      0                       # Write request sizes (log2)
system.physmem.writePktSize::4                      0                       # Write request sizes (log2)
system.physmem.writePktSize::5                      0                       # Write request sizes (log2)
system.physmem.writePktSize::6                 196574                       # Write request sizes (log2)
system.physmem.rdQLenPdf::0                    170769                       # What read queue length does an incoming req see
system.physmem.rdQLenPdf::1                     11917                       # What read queue length does an incoming req see
system.physmem.rdQLenPdf::2                      2025                       # What read queue length does an incoming req see
system.physmem.rdQLenPdf::3                       375                       # What read queue length does an incoming req see
system.physmem.rdQLenPdf::4                        55                       # What read queue length does an incoming req see
system.physmem.rdQLenPdf::5                        39                       # What read queue length does an incoming req see
system.physmem.rdQLenPdf::6                        32                       # What read queue length does an incoming req see
system.physmem.rdQLenPdf::7                        30                       # What read queue length does an incoming req see
system.physmem.rdQLenPdf::8                        28                       # What read queue length does an incoming req see
system.physmem.rdQLenPdf::9                        28                       # What read queue length does an incoming req see
system.physmem.rdQLenPdf::10                       29                       # What read queue length does an incoming req see
system.physmem.rdQLenPdf::11                       27                       # What read queue length does an incoming req see
system.physmem.rdQLenPdf::12                       25                       # What read queue length does an incoming req see
system.physmem.rdQLenPdf::13                       25                       # What read queue length does an incoming req see
system.physmem.rdQLenPdf::14                        7                       # What read queue length does an incoming req see
system.physmem.rdQLenPdf::15                        2                       # What read queue length does an incoming req see
system.physmem.rdQLenPdf::16                        1                       # What read queue length does an incoming req see
system.physmem.rdQLenPdf::17                        1                       # What read queue length does an incoming req see
system.physmem.rdQLenPdf::18                        0                       # What read queue length does an incoming req see
system.physmem.rdQLenPdf::19                        0                       # What read queue length does an incoming req see
system.physmem.rdQLenPdf::20                        0                       # What read queue length does an incoming req see
system.physmem.rdQLenPdf::21                        0                       # What read queue length does an incoming req see
system.physmem.rdQLenPdf::22                        0                       # What read queue length does an incoming req see
system.physmem.rdQLenPdf::23                        0                       # What read queue length does an incoming req see
system.physmem.rdQLenPdf::24                        0                       # What read queue length does an incoming req see
system.physmem.rdQLenPdf::25                        0                       # What read queue length does an incoming req see
system.physmem.rdQLenPdf::26                        0                       # What read queue length does an incoming req see
system.physmem.rdQLenPdf::27                        0                       # What read queue length does an incoming req see
system.physmem.rdQLenPdf::28                        0                       # What read queue length does an incoming req see
system.physmem.rdQLenPdf::29                        0                       # What read queue length does an incoming req see
system.physmem.rdQLenPdf::30                        0                       # What read queue length does an incoming req see
system.physmem.rdQLenPdf::31                        0                       # What read queue length does an incoming req see
system.physmem.wrQLenPdf::0                         1                       # What write queue length does an incoming req see
system.physmem.wrQLenPdf::1                         1                       # What write queue length does an incoming req see
system.physmem.wrQLenPdf::2                         1                       # What write queue length does an incoming req see
system.physmem.wrQLenPdf::3                         1                       # What write queue length does an incoming req see
system.physmem.wrQLenPdf::4                         1                       # What write queue length does an incoming req see
system.physmem.wrQLenPdf::5                         1                       # What write queue length does an incoming req see
system.physmem.wrQLenPdf::6                         1                       # What write queue length does an incoming req see
system.physmem.wrQLenPdf::7                         1                       # What write queue length does an incoming req see
system.physmem.wrQLenPdf::8                         1                       # What write queue length does an incoming req see
system.physmem.wrQLenPdf::9                         1                       # What write queue length does an incoming req see
system.physmem.wrQLenPdf::10                        1                       # What write queue length does an incoming req see
system.physmem.wrQLenPdf::11                        1                       # What write queue length does an incoming req see
system.physmem.wrQLenPdf::12                        1                       # What write queue length does an incoming req see
system.physmem.wrQLenPdf::13                        1                       # What write queue length does an incoming req see
system.physmem.wrQLenPdf::14                        1                       # What write queue length does an incoming req see
system.physmem.wrQLenPdf::15                     2509                       # What write queue length does an incoming req see
system.physmem.wrQLenPdf::16                     4824                       # What write queue length does an incoming req see
system.physmem.wrQLenPdf::17                     9547                       # What write queue length does an incoming req see
system.physmem.wrQLenPdf::18                    10935                       # What write queue length does an incoming req see
system.physmem.wrQLenPdf::19                    11433                       # What write queue length does an incoming req see
system.physmem.wrQLenPdf::20                    12449                       # What write queue length does an incoming req see
system.physmem.wrQLenPdf::21                    12895                       # What write queue length does an incoming req see
system.physmem.wrQLenPdf::22                    13963                       # What write queue length does an incoming req see
system.physmem.wrQLenPdf::23                    13629                       # What write queue length does an incoming req see
system.physmem.wrQLenPdf::24                    14296                       # What write queue length does an incoming req see
system.physmem.wrQLenPdf::25                    13176                       # What write queue length does an incoming req see
system.physmem.wrQLenPdf::26                    12672                       # What write queue length does an incoming req see
system.physmem.wrQLenPdf::27                    11348                       # What write queue length does an incoming req see
system.physmem.wrQLenPdf::28                    10803                       # What write queue length does an incoming req see
system.physmem.wrQLenPdf::29                     9189                       # What write queue length does an incoming req see
system.physmem.wrQLenPdf::30                     8820                       # What write queue length does an incoming req see
system.physmem.wrQLenPdf::31                     8678                       # What write queue length does an incoming req see
system.physmem.wrQLenPdf::32                     8475                       # What write queue length does an incoming req see
system.physmem.wrQLenPdf::33                      592                       # What write queue length does an incoming req see
system.physmem.wrQLenPdf::34                      508                       # What write queue length does an incoming req see
system.physmem.wrQLenPdf::35                      443                       # What write queue length does an incoming req see
system.physmem.wrQLenPdf::36                      373                       # What write queue length does an incoming req see
system.physmem.wrQLenPdf::37                      315                       # What write queue length does an incoming req see
system.physmem.wrQLenPdf::38                      281                       # What write queue length does an incoming req see
system.physmem.wrQLenPdf::39                      235                       # What write queue length does an incoming req see
system.physmem.wrQLenPdf::40                      213                       # What write queue length does an incoming req see
system.physmem.wrQLenPdf::41                      196                       # What write queue length does an incoming req see
system.physmem.wrQLenPdf::42                      189                       # What write queue length does an incoming req see
system.physmem.wrQLenPdf::43                      194                       # What write queue length does an incoming req see
system.physmem.wrQLenPdf::44                      160                       # What write queue length does an incoming req see
system.physmem.wrQLenPdf::45                      156                       # What write queue length does an incoming req see
system.physmem.wrQLenPdf::46                      151                       # What write queue length does an incoming req see
system.physmem.wrQLenPdf::47                      147                       # What write queue length does an incoming req see
system.physmem.wrQLenPdf::48                      145                       # What write queue length does an incoming req see
system.physmem.wrQLenPdf::49                      122                       # What write queue length does an incoming req see
system.physmem.wrQLenPdf::50                      111                       # What write queue length does an incoming req see
system.physmem.wrQLenPdf::51                       94                       # What write queue length does an incoming req see
system.physmem.wrQLenPdf::52                       65                       # What write queue length does an incoming req see
system.physmem.wrQLenPdf::53                       51                       # What write queue length does an incoming req see
system.physmem.wrQLenPdf::54                       40                       # What write queue length does an incoming req see
system.physmem.wrQLenPdf::55                       27                       # What write queue length does an incoming req see
system.physmem.wrQLenPdf::56                       17                       # What write queue length does an incoming req see
system.physmem.wrQLenPdf::57                       16                       # What write queue length does an incoming req see
system.physmem.wrQLenPdf::58                       10                       # What write queue length does an incoming req see
system.physmem.wrQLenPdf::59                        8                       # What write queue length does an incoming req see
system.physmem.wrQLenPdf::60                        3                       # What write queue length does an incoming req see
system.physmem.wrQLenPdf::61                        4                       # What write queue length does an incoming req see
system.physmem.wrQLenPdf::62                        1                       # What write queue length does an incoming req see
system.physmem.wrQLenPdf::63                        2                       # What write queue length does an incoming req see
system.physmem.bytesPerActivate::samples        75192                       # Bytes accessed per row activation
system.physmem.bytesPerActivate::mean      323.362060                       # Bytes accessed per row activation
system.physmem.bytesPerActivate::gmean     187.476414                       # Bytes accessed per row activation
system.physmem.bytesPerActivate::stdev     341.898646                       # Bytes accessed per row activation
system.physmem.bytesPerActivate::0-127          27996     37.23%     37.23% # Bytes accessed per row activation
system.physmem.bytesPerActivate::128-255        17297     23.00%     60.24% # Bytes accessed per row activation
system.physmem.bytesPerActivate::256-383         7451      9.91%     70.15% # Bytes accessed per row activation
system.physmem.bytesPerActivate::384-511         4205      5.59%     75.74% # Bytes accessed per row activation
system.physmem.bytesPerActivate::512-639         3004      4.00%     79.73% # Bytes accessed per row activation
system.physmem.bytesPerActivate::640-767         2064      2.74%     82.48% # Bytes accessed per row activation
system.physmem.bytesPerActivate::768-895         1408      1.87%     84.35% # Bytes accessed per row activation
system.physmem.bytesPerActivate::896-1023         1199      1.59%     85.95% # Bytes accessed per row activation
system.physmem.bytesPerActivate::1024-1151        10568     14.05%    100.00% # Bytes accessed per row activation
system.physmem.bytesPerActivate::total          75192                       # Bytes accessed per row activation
system.physmem.rdPerTurnAround::samples          7811                       # Reads before turning the bus around for writes
system.physmem.rdPerTurnAround::mean        23.734349                       # Reads before turning the bus around for writes
system.physmem.rdPerTurnAround::stdev      544.550807                       # Reads before turning the bus around for writes
system.physmem.rdPerTurnAround::0-2047           7810     99.99%     99.99% # Reads before turning the bus around for writes
system.physmem.rdPerTurnAround::47104-49151            1      0.01%    100.00% # Reads before turning the bus around for writes
system.physmem.rdPerTurnAround::total            7811                       # Reads before turning the bus around for writes
system.physmem.wrPerTurnAround::samples          7811                       # Writes before turning the bus around for reads
system.physmem.wrPerTurnAround::mean        24.900269                       # Writes before turning the bus around for reads
system.physmem.wrPerTurnAround::gmean       20.294695                       # Writes before turning the bus around for reads
system.physmem.wrPerTurnAround::stdev       24.961495                       # Writes before turning the bus around for reads
system.physmem.wrPerTurnAround::16-19            6395     81.87%     81.87% # Writes before turning the bus around for reads
system.physmem.wrPerTurnAround::20-23              66      0.84%     82.72% # Writes before turning the bus around for reads
system.physmem.wrPerTurnAround::24-27              12      0.15%     82.87% # Writes before turning the bus around for reads
system.physmem.wrPerTurnAround::28-31             258      3.30%     86.17% # Writes before turning the bus around for reads
system.physmem.wrPerTurnAround::32-35             186      2.38%     88.55% # Writes before turning the bus around for reads
system.physmem.wrPerTurnAround::36-39              50      0.64%     89.19% # Writes before turning the bus around for reads
system.physmem.wrPerTurnAround::40-43              38      0.49%     89.68% # Writes before turning the bus around for reads
system.physmem.wrPerTurnAround::44-47              45      0.58%     90.26% # Writes before turning the bus around for reads
system.physmem.wrPerTurnAround::48-51             169      2.16%     92.42% # Writes before turning the bus around for reads
system.physmem.wrPerTurnAround::52-55              11      0.14%     92.56% # Writes before turning the bus around for reads
system.physmem.wrPerTurnAround::56-59              12      0.15%     92.72% # Writes before turning the bus around for reads
system.physmem.wrPerTurnAround::60-63              16      0.20%     92.92% # Writes before turning the bus around for reads
system.physmem.wrPerTurnAround::64-67              26      0.33%     93.25% # Writes before turning the bus around for reads
system.physmem.wrPerTurnAround::68-71              16      0.20%     93.46% # Writes before turning the bus around for reads
system.physmem.wrPerTurnAround::72-75              15      0.19%     93.65% # Writes before turning the bus around for reads
system.physmem.wrPerTurnAround::76-79              41      0.52%     94.17% # Writes before turning the bus around for reads
system.physmem.wrPerTurnAround::80-83              93      1.19%     95.37% # Writes before turning the bus around for reads
system.physmem.wrPerTurnAround::84-87              13      0.17%     95.53% # Writes before turning the bus around for reads
system.physmem.wrPerTurnAround::88-91               9      0.12%     95.65% # Writes before turning the bus around for reads
system.physmem.wrPerTurnAround::92-95              19      0.24%     95.89% # Writes before turning the bus around for reads
system.physmem.wrPerTurnAround::96-99             147      1.88%     97.77% # Writes before turning the bus around for reads
system.physmem.wrPerTurnAround::100-103             3      0.04%     97.81% # Writes before turning the bus around for reads
system.physmem.wrPerTurnAround::104-107            13      0.17%     97.98% # Writes before turning the bus around for reads
system.physmem.wrPerTurnAround::108-111             4      0.05%     98.03% # Writes before turning the bus around for reads
system.physmem.wrPerTurnAround::112-115            20      0.26%     98.28% # Writes before turning the bus around for reads
system.physmem.wrPerTurnAround::116-119             9      0.12%     98.40% # Writes before turning the bus around for reads
system.physmem.wrPerTurnAround::120-123             5      0.06%     98.46% # Writes before turning the bus around for reads
system.physmem.wrPerTurnAround::124-127             3      0.04%     98.50% # Writes before turning the bus around for reads
system.physmem.wrPerTurnAround::128-131            27      0.35%     98.85% # Writes before turning the bus around for reads
system.physmem.wrPerTurnAround::132-135            13      0.17%     99.01% # Writes before turning the bus around for reads
system.physmem.wrPerTurnAround::136-139             2      0.03%     99.04% # Writes before turning the bus around for reads
system.physmem.wrPerTurnAround::140-143             4      0.05%     99.09% # Writes before turning the bus around for reads
system.physmem.wrPerTurnAround::144-147            11      0.14%     99.23% # Writes before turning the bus around for reads
system.physmem.wrPerTurnAround::148-151            10      0.13%     99.36% # Writes before turning the bus around for reads
system.physmem.wrPerTurnAround::152-155             4      0.05%     99.41% # Writes before turning the bus around for reads
system.physmem.wrPerTurnAround::156-159             2      0.03%     99.44% # Writes before turning the bus around for reads
system.physmem.wrPerTurnAround::160-163             5      0.06%     99.50% # Writes before turning the bus around for reads
system.physmem.wrPerTurnAround::164-167             3      0.04%     99.54% # Writes before turning the bus around for reads
system.physmem.wrPerTurnAround::168-171             3      0.04%     99.58% # Writes before turning the bus around for reads
system.physmem.wrPerTurnAround::172-175             2      0.03%     99.60% # Writes before turning the bus around for reads
system.physmem.wrPerTurnAround::176-179             7      0.09%     99.69% # Writes before turning the bus around for reads
system.physmem.wrPerTurnAround::180-183             1      0.01%     99.71% # Writes before turning the bus around for reads
system.physmem.wrPerTurnAround::184-187             1      0.01%     99.72% # Writes before turning the bus around for reads
system.physmem.wrPerTurnAround::188-191             2      0.03%     99.74% # Writes before turning the bus around for reads
system.physmem.wrPerTurnAround::208-211             1      0.01%     99.76% # Writes before turning the bus around for reads
system.physmem.wrPerTurnAround::212-215             1      0.01%     99.77% # Writes before turning the bus around for reads
system.physmem.wrPerTurnAround::216-219             1      0.01%     99.78% # Writes before turning the bus around for reads
system.physmem.wrPerTurnAround::220-223             7      0.09%     99.87% # Writes before turning the bus around for reads
system.physmem.wrPerTurnAround::224-227             3      0.04%     99.91% # Writes before turning the bus around for reads
system.physmem.wrPerTurnAround::228-231             2      0.03%     99.94% # Writes before turning the bus around for reads
system.physmem.wrPerTurnAround::248-251             4      0.05%     99.99% # Writes before turning the bus around for reads
system.physmem.wrPerTurnAround::252-255             1      0.01%    100.00% # Writes before turning the bus around for reads
system.physmem.wrPerTurnAround::total            7811                       # Writes before turning the bus around for reads
system.physmem.totQLat                     1990259250                       # Total ticks spent queuing
system.physmem.totMemAccLat                5466790500                       # Total ticks spent from burst creation until serviced by the DRAM
system.physmem.totBusLat                    927075000                       # Total ticks spent in databus transfers
system.physmem.avgQLat                       10734.08                       # Average queueing delay per DRAM burst
system.physmem.avgBusLat                      5000.00                       # Average bus latency per DRAM burst
system.physmem.avgMemAccLat                  29484.08                       # Average memory access latency per DRAM burst
system.physmem.avgRdBW                           2.31                       # Average DRAM read bandwidth in MiByte/s
system.physmem.avgWrBW                           2.43                       # Average achieved write bandwidth in MiByte/s
system.physmem.avgRdBWSys                        2.32                       # Average system read bandwidth in MiByte/s
system.physmem.avgWrBWSys                        2.45                       # Average system write bandwidth in MiByte/s
system.physmem.peakBW                        12800.00                       # Theoretical peak bandwidth in MiByte/s
system.physmem.busUtil                           0.04                       # Data bus utilization in percentage
system.physmem.busUtilRead                       0.02                       # Data bus utilization in percentage for reads
system.physmem.busUtilWrite                      0.02                       # Data bus utilization in percentage for writes
system.physmem.avgRdQLen                         1.06                       # Average read queue length when enqueuing
system.physmem.avgWrQLen                        24.10                       # Average write queue length when enqueuing
system.physmem.readRowHits                     152358                       # Number of row buffer hits during reads
system.physmem.writeRowHits                    152360                       # Number of row buffer hits during writes
system.physmem.readRowHitRate                   82.17                       # Row buffer hit rate for reads
system.physmem.writeRowHitRate                  78.32                       # Row buffer hit rate for writes
system.physmem.avgGap                     13414176.86                       # Average gap between requests
system.physmem.pageHitRate                      80.20                       # Row buffer hit rate, read and write combined
system.physmem_0.actEnergy                  277686360                       # Energy for activate commands per rank (pJ)
system.physmem_0.preEnergy                  151515375                       # Energy for precharge commands per rank (pJ)
system.physmem_0.readEnergy                 715759200                       # Energy for read commands per rank (pJ)
system.physmem_0.writeEnergy                622883520                       # Energy for write commands per rank (pJ)
system.physmem_0.refreshEnergy           334801830480                       # Energy for refresh commands per rank (pJ)
system.physmem_0.actBackEnergy           129454885665                       # Energy for active background per rank (pJ)
system.physmem_0.preBackEnergy           2962010423250                       # Energy for precharge background per rank (pJ)
system.physmem_0.totalEnergy             3428034983850                       # Total energy per rank (pJ)
system.physmem_0.averagePower              668.761488                       # Core power per rank (mW)
system.physmem_0.memoryStateTime::IDLE   4927497903250                       # Time in different power states
system.physmem_0.memoryStateTime::REF    171166580000                       # Time in different power states
system.physmem_0.memoryStateTime::PRE_PDN            0                       # Time in different power states
system.physmem_0.memoryStateTime::ACT     27281453250                       # Time in different power states
system.physmem_0.memoryStateTime::ACT_PDN            0                       # Time in different power states
system.physmem_1.actEnergy                  290765160                       # Energy for activate commands per rank (pJ)
system.physmem_1.preEnergy                  158651625                       # Energy for precharge commands per rank (pJ)
system.physmem_1.readEnergy                 730470000                       # Energy for read commands per rank (pJ)
system.physmem_1.writeEnergy                637450560                       # Energy for write commands per rank (pJ)
system.physmem_1.refreshEnergy           334801830480                       # Energy for refresh commands per rank (pJ)
system.physmem_1.actBackEnergy           129625961760                       # Energy for active background per rank (pJ)
system.physmem_1.preBackEnergy           2961860356500                       # Energy for precharge background per rank (pJ)
system.physmem_1.totalEnergy             3428105486085                       # Total energy per rank (pJ)
system.physmem_1.averagePower              668.775242                       # Core power per rank (mW)
system.physmem_1.memoryStateTime::IDLE   4927247811250                       # Time in different power states
system.physmem_1.memoryStateTime::REF    171166580000                       # Time in different power states
system.physmem_1.memoryStateTime::PRE_PDN            0                       # Time in different power states
system.physmem_1.memoryStateTime::ACT     27531190000                       # Time in different power states
system.physmem_1.memoryStateTime::ACT_PDN            0                       # Time in different power states
system.cpu.branchPred.lookups                87010872                       # Number of BP lookups
system.cpu.branchPred.condPredicted          87010872                       # Number of conditional branches predicted
system.cpu.branchPred.condIncorrect            908907                       # Number of conditional branches incorrect
system.cpu.branchPred.BTBLookups             80241948                       # Number of BTB lookups
system.cpu.branchPred.BTBHits                78260393                       # Number of BTB hits
system.cpu.branchPred.BTBCorrect                    0                       # Number of correct BTB predictions (this stat may not work properly.
system.cpu.branchPred.BTBHitPct             97.530525                       # BTB Hit Percentage
system.cpu.branchPred.usedRAS                 1567280                       # Number of times the RAS was used to get a target.
system.cpu.branchPred.RASInCorrect             181222                       # Number of incorrect RAS predictions.
system.cpu_clk_domain.clock                       500                       # Clock period in ticks
system.cpu.apic_clk_domain.clock                 8000                       # Clock period in ticks
system.cpu.numCycles                        449757362                       # number of cpu cycles simulated
system.cpu.numWorkItemsStarted                      0                       # number of work items this cpu started
system.cpu.numWorkItemsCompleted                    0                       # number of work items this cpu completed
system.cpu.fetch.icacheStallCycles           27680627                       # Number of cycles fetch is stalled on an Icache miss
system.cpu.fetch.Insts                      429642410                       # Number of instructions fetch has processed
system.cpu.fetch.Branches                    87010872                       # Number of branches that fetch encountered
system.cpu.fetch.predictedBranches           79827673                       # Number of branches that fetch has predicted taken
system.cpu.fetch.Cycles                     418150440                       # Number of cycles fetch has run and was not squashing or blocked
system.cpu.fetch.SquashCycles                 1906654                       # Number of cycles fetch has spent squashing
system.cpu.fetch.TlbCycles                     150208                       # Number of cycles fetch has spent waiting for tlb
system.cpu.fetch.MiscStallCycles                58666                       # Number of cycles fetch has spent waiting on interrupts, or bad addresses, or out of MSHRs
system.cpu.fetch.PendingTrapStallCycles        213443                       # Number of stall cycles due to pending traps
system.cpu.fetch.PendingQuiesceStallCycles          140                       # Number of stall cycles due to pending quiesce instructions
system.cpu.fetch.IcacheWaitRetryStallCycles          436                       # Number of stall cycles due to full MSHR
system.cpu.fetch.CacheLines                   9233721                       # Number of cache lines fetched
system.cpu.fetch.IcacheSquashes                451702                       # Number of outstanding Icache misses that were squashed
system.cpu.fetch.ItlbSquashes                    5158                       # Number of outstanding ITLB misses that were squashed
system.cpu.fetch.rateDist::samples          447207287                       # Number of instructions fetched each cycle (Total)
system.cpu.fetch.rateDist::mean              1.895606                       # Number of instructions fetched each cycle (Total)
system.cpu.fetch.rateDist::stdev             3.052695                       # Number of instructions fetched each cycle (Total)
system.cpu.fetch.rateDist::underflows               0      0.00%      0.00% # Number of instructions fetched each cycle (Total)
system.cpu.fetch.rateDist::0                281559277     62.96%     62.96% # Number of instructions fetched each cycle (Total)
system.cpu.fetch.rateDist::1                  2214583      0.50%     63.45% # Number of instructions fetched each cycle (Total)
system.cpu.fetch.rateDist::2                 72218429     16.15%     79.60% # Number of instructions fetched each cycle (Total)
system.cpu.fetch.rateDist::3                  1625336      0.36%     79.97% # Number of instructions fetched each cycle (Total)
system.cpu.fetch.rateDist::4                  2151026      0.48%     80.45% # Number of instructions fetched each cycle (Total)
system.cpu.fetch.rateDist::5                  2311115      0.52%     80.96% # Number of instructions fetched each cycle (Total)
system.cpu.fetch.rateDist::6                  1533968      0.34%     81.31% # Number of instructions fetched each cycle (Total)
system.cpu.fetch.rateDist::7                  1910699      0.43%     81.73% # Number of instructions fetched each cycle (Total)
system.cpu.fetch.rateDist::8                 81682854     18.27%    100.00% # Number of instructions fetched each cycle (Total)
system.cpu.fetch.rateDist::overflows                0      0.00%    100.00% # Number of instructions fetched each cycle (Total)
system.cpu.fetch.rateDist::min_value                0                       # Number of instructions fetched each cycle (Total)
system.cpu.fetch.rateDist::max_value                8                       # Number of instructions fetched each cycle (Total)
system.cpu.fetch.rateDist::total            447207287                       # Number of instructions fetched each cycle (Total)
system.cpu.fetch.branchRate                  0.193462                       # Number of branch fetches per cycle
system.cpu.fetch.rate                        0.955276                       # Number of inst fetches per cycle
system.cpu.decode.IdleCycles                 23009193                       # Number of cycles decode is idle
system.cpu.decode.BlockedCycles             264931793                       # Number of cycles decode is blocked
system.cpu.decode.RunCycles                 150859313                       # Number of cycles decode is running
system.cpu.decode.UnblockCycles               7453661                       # Number of cycles decode is unblocking
system.cpu.decode.SquashCycles                 953327                       # Number of cycles decode is squashing
system.cpu.decode.DecodedInsts              839350026                       # Number of instructions handled by decode
system.cpu.rename.SquashCycles                 953327                       # Number of cycles rename is squashing
system.cpu.rename.IdleCycles                 25875798                       # Number of cycles rename is idle
system.cpu.rename.BlockCycles               223334745                       # Number of cycles rename is blocking
system.cpu.rename.serializeStallCycles       13198087                       # count of cycles rename stalled for serializing inst
system.cpu.rename.RunCycles                 154759437                       # Number of cycles rename is running
system.cpu.rename.UnblockCycles              29085893                       # Number of cycles rename is unblocking
system.cpu.rename.RenamedInsts              835811014                       # Number of instructions processed by rename
system.cpu.rename.ROBFullEvents                482001                       # Number of times rename has blocked due to ROB full
system.cpu.rename.IQFullEvents               12419616                       # Number of times rename has blocked due to IQ full
system.cpu.rename.LQFullEvents                 206377                       # Number of times rename has blocked due to LQ full
system.cpu.rename.SQFullEvents               13783403                       # Number of times rename has blocked due to SQ full
system.cpu.rename.RenamedOperands           998347758                       # Number of destination operands rename has renamed
system.cpu.rename.RenameLookups            1815644422                       # Number of register rename lookups that rename has made
system.cpu.rename.int_rename_lookups       1116079946                       # Number of integer rename lookups
system.cpu.rename.fp_rename_lookups               122                       # Number of floating rename lookups
system.cpu.rename.CommittedMaps             964783456                       # Number of HB maps that are committed
system.cpu.rename.UndoneMaps                 33564300                       # Number of HB maps that are undone due to squashing
system.cpu.rename.serializingInsts             467714                       # count of serializing insts renamed
system.cpu.rename.tempSerializingInsts         471747                       # count of temporary serializing insts renamed
system.cpu.rename.skidInsts                  39093495                       # count of insts added to the skid buffer
system.cpu.memDep0.insertedLoads             17396694                       # Number of loads inserted to the mem dependence unit.
system.cpu.memDep0.insertedStores            10208602                       # Number of stores inserted to the mem dependence unit.
system.cpu.memDep0.conflictingLoads           1304613                       # Number of conflicting loads.
system.cpu.memDep0.conflictingStores          1095322                       # Number of conflicting stores.
system.cpu.iq.iqInstsAdded                  830247357                       # Number of instructions added to the IQ (excludes non-spec)
system.cpu.iq.iqNonSpecInstsAdded             1203823                       # Number of non-speculative instructions added to the IQ
system.cpu.iq.iqInstsIssued                 824890478                       # Number of instructions issued
system.cpu.iq.iqSquashedInstsIssued            241321                       # Number of squashed instructions issued
system.cpu.iq.iqSquashedInstsExamined        23772173                       # Number of squashed instructions iterated over during squash; mainly for profiling
system.cpu.iq.iqSquashedOperandsExamined     36627244                       # Number of squashed operands that are examined and possibly removed from graph
system.cpu.iq.iqSquashedNonSpecRemoved         152885                       # Number of squashed non-spec instructions that were removed
system.cpu.iq.issued_per_cycle::samples     447207287                       # Number of insts issued each cycle
system.cpu.iq.issued_per_cycle::mean         1.844537                       # Number of insts issued each cycle
system.cpu.iq.issued_per_cycle::stdev        2.418419                       # Number of insts issued each cycle
system.cpu.iq.issued_per_cycle::underflows            0      0.00%      0.00% # Number of insts issued each cycle
system.cpu.iq.issued_per_cycle::0           262823455     58.77%     58.77% # Number of insts issued each cycle
system.cpu.iq.issued_per_cycle::1            13859186      3.10%     61.87% # Number of insts issued each cycle
system.cpu.iq.issued_per_cycle::2            10127573      2.26%     64.13% # Number of insts issued each cycle
system.cpu.iq.issued_per_cycle::3             6921797      1.55%     65.68% # Number of insts issued each cycle
system.cpu.iq.issued_per_cycle::4            74369123     16.63%     82.31% # Number of insts issued each cycle
system.cpu.iq.issued_per_cycle::5             4467728      1.00%     83.31% # Number of insts issued each cycle
system.cpu.iq.issued_per_cycle::6            72848553     16.29%     99.60% # Number of insts issued each cycle
system.cpu.iq.issued_per_cycle::7             1214671      0.27%     99.87% # Number of insts issued each cycle
system.cpu.iq.issued_per_cycle::8              575201      0.13%    100.00% # Number of insts issued each cycle
system.cpu.iq.issued_per_cycle::overflows            0      0.00%    100.00% # Number of insts issued each cycle
system.cpu.iq.issued_per_cycle::min_value            0                       # Number of insts issued each cycle
system.cpu.iq.issued_per_cycle::max_value            8                       # Number of insts issued each cycle
system.cpu.iq.issued_per_cycle::total       447207287                       # Number of insts issued each cycle
system.cpu.iq.fu_full::No_OpClass                   0      0.00%      0.00% # attempts to use FU when none available
system.cpu.iq.fu_full::IntAlu                 2002012     72.04%     72.04% # attempts to use FU when none available
system.cpu.iq.fu_full::IntMult                    252      0.01%     72.05% # attempts to use FU when none available
system.cpu.iq.fu_full::IntDiv                    1516      0.05%     72.10% # attempts to use FU when none available
system.cpu.iq.fu_full::FloatAdd                     0      0.00%     72.10% # attempts to use FU when none available
system.cpu.iq.fu_full::FloatCmp                     0      0.00%     72.10% # attempts to use FU when none available
system.cpu.iq.fu_full::FloatCvt                     0      0.00%     72.10% # attempts to use FU when none available
system.cpu.iq.fu_full::FloatMult                    0      0.00%     72.10% # attempts to use FU when none available
system.cpu.iq.fu_full::FloatDiv                     0      0.00%     72.10% # attempts to use FU when none available
system.cpu.iq.fu_full::FloatSqrt                    0      0.00%     72.10% # attempts to use FU when none available
system.cpu.iq.fu_full::SimdAdd                      0      0.00%     72.10% # attempts to use FU when none available
system.cpu.iq.fu_full::SimdAddAcc                   0      0.00%     72.10% # attempts to use FU when none available
system.cpu.iq.fu_full::SimdAlu                      0      0.00%     72.10% # attempts to use FU when none available
system.cpu.iq.fu_full::SimdCmp                      0      0.00%     72.10% # attempts to use FU when none available
system.cpu.iq.fu_full::SimdCvt                      0      0.00%     72.10% # attempts to use FU when none available
system.cpu.iq.fu_full::SimdMisc                     0      0.00%     72.10% # attempts to use FU when none available
system.cpu.iq.fu_full::SimdMult                     0      0.00%     72.10% # attempts to use FU when none available
system.cpu.iq.fu_full::SimdMultAcc                  0      0.00%     72.10% # attempts to use FU when none available
system.cpu.iq.fu_full::SimdShift                    0      0.00%     72.10% # attempts to use FU when none available
system.cpu.iq.fu_full::SimdShiftAcc                 0      0.00%     72.10% # attempts to use FU when none available
system.cpu.iq.fu_full::SimdSqrt                     0      0.00%     72.10% # attempts to use FU when none available
system.cpu.iq.fu_full::SimdFloatAdd                 0      0.00%     72.10% # attempts to use FU when none available
system.cpu.iq.fu_full::SimdFloatAlu                 0      0.00%     72.10% # attempts to use FU when none available
system.cpu.iq.fu_full::SimdFloatCmp                 0      0.00%     72.10% # attempts to use FU when none available
system.cpu.iq.fu_full::SimdFloatCvt                 0      0.00%     72.10% # attempts to use FU when none available
system.cpu.iq.fu_full::SimdFloatDiv                 0      0.00%     72.10% # attempts to use FU when none available
system.cpu.iq.fu_full::SimdFloatMisc                0      0.00%     72.10% # attempts to use FU when none available
system.cpu.iq.fu_full::SimdFloatMult                0      0.00%     72.10% # attempts to use FU when none available
system.cpu.iq.fu_full::SimdFloatMultAcc             0      0.00%     72.10% # attempts to use FU when none available
system.cpu.iq.fu_full::SimdFloatSqrt                0      0.00%     72.10% # attempts to use FU when none available
system.cpu.iq.fu_full::MemRead                 615311     22.14%     94.24% # attempts to use FU when none available
system.cpu.iq.fu_full::MemWrite                160020      5.76%    100.00% # attempts to use FU when none available
system.cpu.iq.fu_full::IprAccess                    0      0.00%    100.00% # attempts to use FU when none available
system.cpu.iq.fu_full::InstPrefetch                 0      0.00%    100.00% # attempts to use FU when none available
system.cpu.iq.FU_type_0::No_OpClass            292641      0.04%      0.04% # Type of FU issued
system.cpu.iq.FU_type_0::IntAlu             796440241     96.55%     96.59% # Type of FU issued
system.cpu.iq.FU_type_0::IntMult               150873      0.02%     96.60% # Type of FU issued
system.cpu.iq.FU_type_0::IntDiv                125700      0.02%     96.62% # Type of FU issued
system.cpu.iq.FU_type_0::FloatAdd                   0      0.00%     96.62% # Type of FU issued
system.cpu.iq.FU_type_0::FloatCmp                   0      0.00%     96.62% # Type of FU issued
system.cpu.iq.FU_type_0::FloatCvt                   0      0.00%     96.62% # Type of FU issued
system.cpu.iq.FU_type_0::FloatMult                  0      0.00%     96.62% # Type of FU issued
system.cpu.iq.FU_type_0::FloatDiv                   0      0.00%     96.62% # Type of FU issued
system.cpu.iq.FU_type_0::FloatSqrt                  0      0.00%     96.62% # Type of FU issued
system.cpu.iq.FU_type_0::SimdAdd                    0      0.00%     96.62% # Type of FU issued
system.cpu.iq.FU_type_0::SimdAddAcc                 0      0.00%     96.62% # Type of FU issued
system.cpu.iq.FU_type_0::SimdAlu                    0      0.00%     96.62% # Type of FU issued
system.cpu.iq.FU_type_0::SimdCmp                    0      0.00%     96.62% # Type of FU issued
system.cpu.iq.FU_type_0::SimdCvt                    0      0.00%     96.62% # Type of FU issued
system.cpu.iq.FU_type_0::SimdMisc                   0      0.00%     96.62% # Type of FU issued
system.cpu.iq.FU_type_0::SimdMult                   0      0.00%     96.62% # Type of FU issued
system.cpu.iq.FU_type_0::SimdMultAcc                0      0.00%     96.62% # Type of FU issued
system.cpu.iq.FU_type_0::SimdShift                  0      0.00%     96.62% # Type of FU issued
system.cpu.iq.FU_type_0::SimdShiftAcc               0      0.00%     96.62% # Type of FU issued
system.cpu.iq.FU_type_0::SimdSqrt                   0      0.00%     96.62% # Type of FU issued
system.cpu.iq.FU_type_0::SimdFloatAdd               0      0.00%     96.62% # Type of FU issued
system.cpu.iq.FU_type_0::SimdFloatAlu               0      0.00%     96.62% # Type of FU issued
system.cpu.iq.FU_type_0::SimdFloatCmp               0      0.00%     96.62% # Type of FU issued
system.cpu.iq.FU_type_0::SimdFloatCvt               0      0.00%     96.62% # Type of FU issued
system.cpu.iq.FU_type_0::SimdFloatDiv               0      0.00%     96.62% # Type of FU issued
system.cpu.iq.FU_type_0::SimdFloatMisc              0      0.00%     96.62% # Type of FU issued
system.cpu.iq.FU_type_0::SimdFloatMult              0      0.00%     96.62% # Type of FU issued
system.cpu.iq.FU_type_0::SimdFloatMultAcc            0      0.00%     96.62% # Type of FU issued
system.cpu.iq.FU_type_0::SimdFloatSqrt              0      0.00%     96.62% # Type of FU issued
system.cpu.iq.FU_type_0::MemRead             18469737      2.24%     98.86% # Type of FU issued
system.cpu.iq.FU_type_0::MemWrite             9411286      1.14%    100.00% # Type of FU issued
system.cpu.iq.FU_type_0::IprAccess                  0      0.00%    100.00% # Type of FU issued
system.cpu.iq.FU_type_0::InstPrefetch               0      0.00%    100.00% # Type of FU issued
system.cpu.iq.FU_type_0::total              824890478                       # Type of FU issued
system.cpu.iq.rate                           1.834079                       # Inst issue rate
system.cpu.iq.fu_busy_cnt                     2779111                       # FU busy when requested
system.cpu.iq.fu_busy_rate                   0.003369                       # FU busy rate (busy events/executed inst)
system.cpu.iq.int_inst_queue_reads         2100008470                       # Number of integer instruction queue reads
system.cpu.iq.int_inst_queue_writes         855235960                       # Number of integer instruction queue writes
system.cpu.iq.int_inst_queue_wakeup_accesses    820301631                       # Number of integer instruction queue wakeup accesses
system.cpu.iq.fp_inst_queue_reads                 204                       # Number of floating instruction queue reads
system.cpu.iq.fp_inst_queue_writes                226                       # Number of floating instruction queue writes
system.cpu.iq.fp_inst_queue_wakeup_accesses           57                       # Number of floating instruction queue wakeup accesses
system.cpu.iq.int_alu_accesses              827376851                       # Number of integer alu accesses
system.cpu.iq.fp_alu_accesses                      97                       # Number of floating point alu accesses
system.cpu.iew.lsq.thread0.forwLoads          1872015                       # Number of loads that had data forwarded from stores
system.cpu.iew.lsq.thread0.invAddrLoads             0                       # Number of loads ignored due to an invalid address
system.cpu.iew.lsq.thread0.squashedLoads      3394675                       # Number of loads squashed
system.cpu.iew.lsq.thread0.ignoredResponses        15480                       # Number of memory responses ignored because the instruction is squashed
system.cpu.iew.lsq.thread0.memOrderViolation        14595                       # Number of memory ordering violations
system.cpu.iew.lsq.thread0.squashedStores      1778587                       # Number of stores squashed
system.cpu.iew.lsq.thread0.invAddrSwpfs             0                       # Number of software prefetches ignored due to an invalid address
system.cpu.iew.lsq.thread0.blockedLoads             0                       # Number of blocked loads due to partial load-store forwarding
system.cpu.iew.lsq.thread0.rescheduledLoads      2224947                       # Number of loads that were rescheduled
system.cpu.iew.lsq.thread0.cacheBlocked         72059                       # Number of times an access to memory failed due to the cache being blocked
system.cpu.iew.iewIdleCycles                        0                       # Number of cycles IEW is idle
system.cpu.iew.iewSquashCycles                 953327                       # Number of cycles IEW is squashing
system.cpu.iew.iewBlockCycles               205633916                       # Number of cycles IEW is blocking
system.cpu.iew.iewUnblockCycles               9395655                       # Number of cycles IEW is unblocking
system.cpu.iew.iewDispatchedInsts           831451180                       # Number of instructions dispatched to IQ
system.cpu.iew.iewDispSquashedInsts            157138                       # Number of squashed instructions skipped by dispatch
system.cpu.iew.iewDispLoadInsts              17396694                       # Number of dispatched load instructions
system.cpu.iew.iewDispStoreInsts             10208602                       # Number of dispatched store instructions
system.cpu.iew.iewDispNonSpecInsts             706837                       # Number of dispatched non-speculative instructions
system.cpu.iew.iewIQFullEvents                 415978                       # Number of times the IQ has become full, causing a stall
system.cpu.iew.iewLSQFullEvents               8079838                       # Number of times the LSQ has become full, causing a stall
system.cpu.iew.memOrderViolationEvents          14595                       # Number of memory order violations
system.cpu.iew.predictedTakenIncorrect         523025                       # Number of branches that were predicted taken incorrectly
system.cpu.iew.predictedNotTakenIncorrect       540470                       # Number of branches that were predicted not taken incorrectly
system.cpu.iew.branchMispredicts              1063495                       # Number of branch mispredicts detected at execute
system.cpu.iew.iewExecutedInsts             823253062                       # Number of executed instructions
system.cpu.iew.iewExecLoadInsts              18064803                       # Number of load instructions executed
system.cpu.iew.iewExecSquashedInsts           1501922                       # Number of squashed instructions skipped in execute
system.cpu.iew.exec_swp                             0                       # number of swp insts executed
system.cpu.iew.exec_nop                             0                       # number of nop insts executed
system.cpu.iew.exec_refs                     27249763                       # number of memory reference insts executed
system.cpu.iew.exec_branches                 83367725                       # Number of branches executed
system.cpu.iew.exec_stores                    9184960                       # Number of stores executed
system.cpu.iew.exec_rate                     1.830438                       # Inst execution rate
system.cpu.iew.wb_sent                      822742058                       # cumulative count of insts sent to commit
system.cpu.iew.wb_count                     820301688                       # cumulative count of insts written-back
system.cpu.iew.wb_producers                 641478984                       # num instructions producing a value
system.cpu.iew.wb_consumers                1051241156                       # num instructions consuming a value
system.cpu.iew.wb_penalized                         0                       # number of instrctions required to write to 'other' IQ
system.cpu.iew.wb_rate                       1.823876                       # insts written-back per cycle
system.cpu.iew.wb_fanout                     0.610211                       # average fanout of values written-back
system.cpu.iew.wb_penalized_rate                    0                       # fraction of instructions written-back that wrote to 'other' IQ
system.cpu.commit.commitSquashedInsts        24588739                       # The number of squashed insts skipped by commit
system.cpu.commit.commitNonSpecStalls         1050938                       # The number of times commit has been forced to stall to communicate backwards
system.cpu.commit.branchMispredicts            921334                       # The number of times a branch was mispredicted
system.cpu.commit.committed_per_cycle::samples    443513076                       # Number of insts commited each cycle
system.cpu.commit.committed_per_cycle::mean     1.818961                       # Number of insts commited each cycle
system.cpu.commit.committed_per_cycle::stdev     2.675251                       # Number of insts commited each cycle
system.cpu.commit.committed_per_cycle::underflows            0      0.00%      0.00% # Number of insts commited each cycle
system.cpu.commit.committed_per_cycle::0    272623912     61.47%     61.47% # Number of insts commited each cycle
system.cpu.commit.committed_per_cycle::1     11196719      2.52%     63.99% # Number of insts commited each cycle
system.cpu.commit.committed_per_cycle::2      3582296      0.81%     64.80% # Number of insts commited each cycle
system.cpu.commit.committed_per_cycle::3     74597527     16.82%     81.62% # Number of insts commited each cycle
system.cpu.commit.committed_per_cycle::4      2432522      0.55%     82.17% # Number of insts commited each cycle
system.cpu.commit.committed_per_cycle::5      1609310      0.36%     82.53% # Number of insts commited each cycle
system.cpu.commit.committed_per_cycle::6       947533      0.21%     82.75% # Number of insts commited each cycle
system.cpu.commit.committed_per_cycle::7     71068767     16.02%     98.77% # Number of insts commited each cycle
system.cpu.commit.committed_per_cycle::8      5454490      1.23%    100.00% # Number of insts commited each cycle
system.cpu.commit.committed_per_cycle::overflows            0      0.00%    100.00% # Number of insts commited each cycle
system.cpu.commit.committed_per_cycle::min_value            0                       # Number of insts commited each cycle
system.cpu.commit.committed_per_cycle::max_value            8                       # Number of insts commited each cycle
system.cpu.commit.committed_per_cycle::total    443513076                       # Number of insts commited each cycle
system.cpu.commit.committedInsts            408140259                       # Number of instructions committed
system.cpu.commit.committedOps              806733017                       # Number of ops (including micro ops) committed
system.cpu.commit.swp_count                         0                       # Number of s/w prefetches committed
system.cpu.commit.refs                       22432033                       # Number of memory references committed
system.cpu.commit.loads                      14002018                       # Number of loads committed
system.cpu.commit.membars                      475437                       # Number of memory barriers committed
system.cpu.commit.branches                   82233213                       # Number of branches committed
system.cpu.commit.fp_insts                          0                       # Number of committed floating point instructions.
system.cpu.commit.int_insts                 735520454                       # Number of committed integer instructions.
system.cpu.commit.function_calls              1156067                       # Number of function calls committed.
system.cpu.commit.op_class_0::No_OpClass       171671      0.02%      0.02% # Class of committed instruction
system.cpu.commit.op_class_0::IntAlu        783865362     97.17%     97.19% # Class of committed instruction
system.cpu.commit.op_class_0::IntMult          145082      0.02%     97.20% # Class of committed instruction
system.cpu.commit.op_class_0::IntDiv           121451      0.02%     97.22% # Class of committed instruction
system.cpu.commit.op_class_0::FloatAdd              0      0.00%     97.22% # Class of committed instruction
system.cpu.commit.op_class_0::FloatCmp              0      0.00%     97.22% # Class of committed instruction
system.cpu.commit.op_class_0::FloatCvt              0      0.00%     97.22% # Class of committed instruction
system.cpu.commit.op_class_0::FloatMult             0      0.00%     97.22% # Class of committed instruction
system.cpu.commit.op_class_0::FloatDiv              0      0.00%     97.22% # Class of committed instruction
system.cpu.commit.op_class_0::FloatSqrt             0      0.00%     97.22% # Class of committed instruction
system.cpu.commit.op_class_0::SimdAdd               0      0.00%     97.22% # Class of committed instruction
system.cpu.commit.op_class_0::SimdAddAcc            0      0.00%     97.22% # Class of committed instruction
system.cpu.commit.op_class_0::SimdAlu               0      0.00%     97.22% # Class of committed instruction
system.cpu.commit.op_class_0::SimdCmp               0      0.00%     97.22% # Class of committed instruction
system.cpu.commit.op_class_0::SimdCvt               0      0.00%     97.22% # Class of committed instruction
system.cpu.commit.op_class_0::SimdMisc              0      0.00%     97.22% # Class of committed instruction
system.cpu.commit.op_class_0::SimdMult              0      0.00%     97.22% # Class of committed instruction
system.cpu.commit.op_class_0::SimdMultAcc            0      0.00%     97.22% # Class of committed instruction
system.cpu.commit.op_class_0::SimdShift             0      0.00%     97.22% # Class of committed instruction
system.cpu.commit.op_class_0::SimdShiftAcc            0      0.00%     97.22% # Class of committed instruction
system.cpu.commit.op_class_0::SimdSqrt              0      0.00%     97.22% # Class of committed instruction
system.cpu.commit.op_class_0::SimdFloatAdd            0      0.00%     97.22% # Class of committed instruction
system.cpu.commit.op_class_0::SimdFloatAlu            0      0.00%     97.22% # Class of committed instruction
system.cpu.commit.op_class_0::SimdFloatCmp            0      0.00%     97.22% # Class of committed instruction
system.cpu.commit.op_class_0::SimdFloatCvt            0      0.00%     97.22% # Class of committed instruction
system.cpu.commit.op_class_0::SimdFloatDiv            0      0.00%     97.22% # Class of committed instruction
system.cpu.commit.op_class_0::SimdFloatMisc            0      0.00%     97.22% # Class of committed instruction
system.cpu.commit.op_class_0::SimdFloatMult            0      0.00%     97.22% # Class of committed instruction
system.cpu.commit.op_class_0::SimdFloatMultAcc            0      0.00%     97.22% # Class of committed instruction
system.cpu.commit.op_class_0::SimdFloatSqrt            0      0.00%     97.22% # Class of committed instruction
system.cpu.commit.op_class_0::MemRead        13999436      1.74%     98.96% # Class of committed instruction
system.cpu.commit.op_class_0::MemWrite        8430015      1.04%    100.00% # Class of committed instruction
system.cpu.commit.op_class_0::IprAccess             0      0.00%    100.00% # Class of committed instruction
system.cpu.commit.op_class_0::InstPrefetch            0      0.00%    100.00% # Class of committed instruction
system.cpu.commit.op_class_0::total         806733017                       # Class of committed instruction
system.cpu.commit.bw_lim_events               5454490                       # number cycles where commit BW limit reached
system.cpu.commit.bw_limited                        0                       # number of insts not committed due to BW limits
system.cpu.rob.rob_reads                   1269302111                       # The number of ROB reads
system.cpu.rob.rob_writes                  1666357608                       # The number of ROB writes
system.cpu.timesIdled                          293383                       # Number of times that the entire CPU went into an idle state and unscheduled itself
system.cpu.idleCycles                         2550075                       # Total number of cycles that the CPU has spent unscheduled due to idling
system.cpu.quiesceCycles                   9802132382                       # Total number of cycles that CPU has spent quiesced or waiting for an interrupt
system.cpu.committedInsts                   408140259                       # Number of Instructions Simulated
system.cpu.committedOps                     806733017                       # Number of Ops (including micro ops) Simulated
system.cpu.cpi                               1.101968                       # CPI: Cycles Per Instruction
system.cpu.cpi_total                         1.101968                       # CPI: Total CPI of All Threads
system.cpu.ipc                               0.907468                       # IPC: Instructions Per Cycle
system.cpu.ipc_total                         0.907468                       # IPC: Total IPC of All Threads
system.cpu.int_regfile_reads               1093345902                       # number of integer regfile reads
system.cpu.int_regfile_writes               656583711                       # number of integer regfile writes
system.cpu.fp_regfile_reads                        57                       # number of floating regfile reads
system.cpu.cc_regfile_reads                 416569502                       # number of cc regfile reads
system.cpu.cc_regfile_writes                322266839                       # number of cc regfile writes
system.cpu.misc_regfile_reads               265844677                       # number of misc regfile reads
system.cpu.misc_regfile_writes                 400270                       # number of misc regfile writes
system.cpu.dcache.tags.replacements           1661069                       # number of replacements
system.cpu.dcache.tags.tagsinuse           511.997995                       # Cycle average of tags in use
system.cpu.dcache.tags.total_refs            19180634                       # Total number of references to valid blocks.
system.cpu.dcache.tags.sampled_refs           1661581                       # Sample count of references to valid blocks.
system.cpu.dcache.tags.avg_refs             11.543605                       # Average number of references to valid blocks.
system.cpu.dcache.tags.warmup_cycle          37454250                       # Cycle when the warmup percentage was hit.
system.cpu.dcache.tags.occ_blocks::cpu.data   511.997995                       # Average occupied blocks per requestor
system.cpu.dcache.tags.occ_percent::cpu.data     0.999996                       # Average percentage of cache occupancy
system.cpu.dcache.tags.occ_percent::total     0.999996                       # Average percentage of cache occupancy
system.cpu.dcache.tags.occ_task_id_blocks::1024          512                       # Occupied blocks per task id
system.cpu.dcache.tags.age_task_id_blocks_1024::0          228                       # Occupied blocks per task id
system.cpu.dcache.tags.age_task_id_blocks_1024::1          265                       # Occupied blocks per task id
system.cpu.dcache.tags.age_task_id_blocks_1024::2           19                       # Occupied blocks per task id
system.cpu.dcache.tags.occ_task_id_percent::1024            1                       # Percentage of cache occupancy per task id
system.cpu.dcache.tags.tag_accesses          88533012                       # Number of tag accesses
system.cpu.dcache.tags.data_accesses         88533012                       # Number of data accesses
system.cpu.dcache.ReadReq_hits::cpu.data     11025921                       # number of ReadReq hits
system.cpu.dcache.ReadReq_hits::total        11025921                       # number of ReadReq hits
system.cpu.dcache.WriteReq_hits::cpu.data      8086239                       # number of WriteReq hits
system.cpu.dcache.WriteReq_hits::total        8086239                       # number of WriteReq hits
system.cpu.dcache.SoftPFReq_hits::cpu.data        65769                       # number of SoftPFReq hits
system.cpu.dcache.SoftPFReq_hits::total         65769                       # number of SoftPFReq hits
system.cpu.dcache.demand_hits::cpu.data      19112160                       # number of demand (read+write) hits
system.cpu.dcache.demand_hits::total         19112160                       # number of demand (read+write) hits
system.cpu.dcache.overall_hits::cpu.data     19177929                       # number of overall hits
system.cpu.dcache.overall_hits::total        19177929                       # number of overall hits
system.cpu.dcache.ReadReq_misses::cpu.data      1799370                       # number of ReadReq misses
system.cpu.dcache.ReadReq_misses::total       1799370                       # number of ReadReq misses
system.cpu.dcache.WriteReq_misses::cpu.data       334097                       # number of WriteReq misses
system.cpu.dcache.WriteReq_misses::total       334097                       # number of WriteReq misses
system.cpu.dcache.SoftPFReq_misses::cpu.data       406460                       # number of SoftPFReq misses
system.cpu.dcache.SoftPFReq_misses::total       406460                       # number of SoftPFReq misses
system.cpu.dcache.demand_misses::cpu.data      2133467                       # number of demand (read+write) misses
system.cpu.dcache.demand_misses::total        2133467                       # number of demand (read+write) misses
system.cpu.dcache.overall_misses::cpu.data      2539927                       # number of overall misses
system.cpu.dcache.overall_misses::total       2539927                       # number of overall misses
system.cpu.dcache.ReadReq_miss_latency::cpu.data  26521555176                       # number of ReadReq miss cycles
system.cpu.dcache.ReadReq_miss_latency::total  26521555176                       # number of ReadReq miss cycles
system.cpu.dcache.WriteReq_miss_latency::cpu.data  12869537398                       # number of WriteReq miss cycles
system.cpu.dcache.WriteReq_miss_latency::total  12869537398                       # number of WriteReq miss cycles
[...]
system.iocache.tags.occ_task_id_percent::1023            1                       # Percentage of cache occupancy per task id
system.iocache.tags.tag_accesses               428679                       # Number of tag accesses
system.iocache.tags.data_accesses              428679                       # Number of data accesses
system.iocache.ReadReq_misses::pc.south_bridge.ide          911                       # number of ReadReq misses
system.iocache.ReadReq_misses::total              911                       # number of ReadReq misses
system.iocache.WriteInvalidateReq_misses::pc.south_bridge.ide        46720                       # number of WriteInvalidateReq misses
system.iocache.WriteInvalidateReq_misses::total        46720                       # number of WriteInvalidateReq misses
system.iocache.demand_misses::pc.south_bridge.ide          911                       # number of demand (read+write) misses
system.iocache.demand_misses::total               911                       # number of demand (read+write) misses
system.iocache.overall_misses::pc.south_bridge.ide          911                       # number of overall misses
system.iocache.overall_misses::total              911                       # number of overall misses
system.iocache.ReadReq_miss_latency::pc.south_bridge.ide    147981947                       # number of ReadReq miss cycles
system.iocache.ReadReq_miss_latency::total    147981947                       # number of ReadReq miss cycles
system.iocache.WriteInvalidateReq_miss_latency::pc.south_bridge.ide  12360245999                       # number of WriteInvalidateReq miss cycles
system.iocache.WriteInvalidateReq_miss_latency::total  12360245999                       # number of WriteInvalidateReq miss cycles
system.iocache.demand_miss_latency::pc.south_bridge.ide    147981947                       # number of demand (read+write) miss cycles
system.iocache.demand_miss_latency::total    147981947                       # number of demand (read+write) miss cycles
system.iocache.overall_miss_latency::pc.south_bridge.ide    147981947                       # number of overall miss cycles
system.iocache.overall_miss_latency::total    147981947                       # number of overall miss cycles
system.iocache.ReadReq_accesses::pc.south_bridge.ide          911                       # number of ReadReq accesses(hits+misses)
system.iocache.ReadReq_accesses::total            911                       # number of ReadReq accesses(hits+misses)
system.iocache.WriteInvalidateReq_accesses::pc.south_bridge.ide        46720                       # number of WriteInvalidateReq accesses(hits+misses)
system.iocache.WriteInvalidateReq_accesses::total        46720                       # number of WriteInvalidateReq accesses(hits+misses)
system.iocache.demand_accesses::pc.south_bridge.ide          911                       # number of demand (read+write) accesses
system.iocache.demand_accesses::total             911                       # number of demand (read+write) accesses
system.iocache.overall_accesses::pc.south_bridge.ide          911                       # number of overall (read+write) accesses
system.iocache.overall_accesses::total            911                       # number of overall (read+write) accesses
system.iocache.ReadReq_miss_rate::pc.south_bridge.ide            1                       # miss rate for ReadReq accesses
system.iocache.ReadReq_miss_rate::total             1                       # miss rate for ReadReq accesses
system.iocache.WriteInvalidateReq_miss_rate::pc.south_bridge.ide            1                       # miss rate for WriteInvalidateReq accesses
system.iocache.WriteInvalidateReq_miss_rate::total            1                       # miss rate for WriteInvalidateReq accesses
system.iocache.demand_miss_rate::pc.south_bridge.ide            1                       # miss rate for demand accesses
system.iocache.demand_miss_rate::total              1                       # miss rate for demand accesses
system.iocache.overall_miss_rate::pc.south_bridge.ide            1                       # miss rate for overall accesses
system.iocache.overall_miss_rate::total             1                       # miss rate for overall accesses
system.iocache.ReadReq_avg_miss_latency::pc.south_bridge.ide 162439.019759                       # average ReadReq miss latency
system.iocache.ReadReq_avg_miss_latency::total 162439.019759                       # average ReadReq miss latency
system.iocache.WriteInvalidateReq_avg_miss_latency::pc.south_bridge.ide 264560.059910                       # average WriteInvalidateReq miss latency
system.iocache.WriteInvalidateReq_avg_miss_latency::total 264560.059910                       # average WriteInvalidateReq miss latency
system.iocache.demand_avg_miss_latency::pc.south_bridge.ide 162439.019759                       # average overall miss latency
system.iocache.demand_avg_miss_latency::total 162439.019759                       # average overall miss latency
system.iocache.overall_avg_miss_latency::pc.south_bridge.ide 162439.019759                       # average overall miss latency
system.iocache.overall_avg_miss_latency::total 162439.019759                       # average overall miss latency
system.iocache.blocked_cycles::no_mshrs         70832                       # number of cycles access was blocked
system.iocache.blocked_cycles::no_targets            0                       # number of cycles access was blocked
system.iocache.blocked::no_mshrs                 9173                       # number of cycles access was blocked
system.iocache.blocked::no_targets                  0                       # number of cycles access was blocked
system.iocache.avg_blocked_cycles::no_mshrs     7.721792                       # average number of cycles each access was blocked
system.iocache.avg_blocked_cycles::no_targets          nan                       # average number of cycles each access was blocked
system.iocache.fast_writes                          0                       # number of fast writes performed
system.iocache.cache_copies                         0                       # number of cache copies performed
system.iocache.writebacks::writebacks           46667                       # number of writebacks
system.iocache.writebacks::total                46667                       # number of writebacks
system.iocache.ReadReq_mshr_misses::pc.south_bridge.ide          911                       # number of ReadReq MSHR misses
system.iocache.ReadReq_mshr_misses::total          911                       # number of ReadReq MSHR misses
system.iocache.WriteInvalidateReq_mshr_misses::pc.south_bridge.ide        46720                       # number of WriteInvalidateReq MSHR misses
system.iocache.WriteInvalidateReq_mshr_misses::total        46720                       # number of WriteInvalidateReq MSHR misses
system.iocache.demand_mshr_misses::pc.south_bridge.ide          911                       # number of demand (read+write) MSHR misses
system.iocache.demand_mshr_misses::total          911                       # number of demand (read+write) MSHR misses
system.iocache.overall_mshr_misses::pc.south_bridge.ide          911                       # number of overall MSHR misses
system.iocache.overall_mshr_misses::total          911                       # number of overall MSHR misses
system.iocache.ReadReq_mshr_miss_latency::pc.south_bridge.ide    100584447                       # number of ReadReq MSHR miss cycles
system.iocache.ReadReq_mshr_miss_latency::total    100584447                       # number of ReadReq MSHR miss cycles
system.iocache.WriteInvalidateReq_mshr_miss_latency::pc.south_bridge.ide   9930786019                       # number of WriteInvalidateReq MSHR miss cycles
system.iocache.WriteInvalidateReq_mshr_miss_latency::total   9930786019                       # number of WriteInvalidateReq MSHR miss cycles
system.iocache.demand_mshr_miss_latency::pc.south_bridge.ide    100584447                       # number of demand (read+write) MSHR miss cycles
system.iocache.demand_mshr_miss_latency::total    100584447                       # number of demand (read+write) MSHR miss cycles
system.iocache.overall_mshr_miss_latency::pc.south_bridge.ide    100584447                       # number of overall MSHR miss cycles
system.iocache.overall_mshr_miss_latency::total    100584447                       # number of overall MSHR miss cycles
system.iocache.ReadReq_mshr_miss_rate::pc.south_bridge.ide            1                       # mshr miss rate for ReadReq accesses
system.iocache.ReadReq_mshr_miss_rate::total            1                       # mshr miss rate for ReadReq accesses
system.iocache.WriteInvalidateReq_mshr_miss_rate::pc.south_bridge.ide            1                       # mshr miss rate for WriteInvalidateReq accesses
system.iocache.WriteInvalidateReq_mshr_miss_rate::total            1                       # mshr miss rate for WriteInvalidateReq accesses
system.iocache.demand_mshr_miss_rate::pc.south_bridge.ide            1                       # mshr miss rate for demand accesses
system.iocache.demand_mshr_miss_rate::total            1                       # mshr miss rate for demand accesses
system.iocache.overall_mshr_miss_rate::pc.south_bridge.ide            1                       # mshr miss rate for overall accesses
system.iocache.overall_mshr_miss_rate::total            1                       # mshr miss rate for overall accesses
system.iocache.ReadReq_avg_mshr_miss_latency::pc.south_bridge.ide 110411.028540                       # average ReadReq mshr miss latency
system.iocache.ReadReq_avg_mshr_miss_latency::total 110411.028540                       # average ReadReq mshr miss latency
system.iocache.WriteInvalidateReq_avg_mshr_miss_latency::pc.south_bridge.ide 212559.632256                       # average WriteInvalidateReq mshr miss latency
system.iocache.WriteInvalidateReq_avg_mshr_miss_latency::total 212559.632256                       # average WriteInvalidateReq mshr miss latency
system.iocache.demand_avg_mshr_miss_latency::pc.south_bridge.ide 110411.028540                       # average overall mshr miss latency
system.iocache.demand_avg_mshr_miss_latency::total 110411.028540                       # average overall mshr miss latency
system.iocache.overall_avg_mshr_miss_latency::pc.south_bridge.ide 110411.028540                       # average overall mshr miss latency
system.iocache.overall_avg_mshr_miss_latency::total 110411.028540                       # average overall mshr miss latency
system.iocache.no_allocate_misses                   0                       # Number of misses that were no-allocate
system.membus.trans_dist::ReadReq              662583                       # Transaction distribution
system.membus.trans_dist::ReadResp             662574                       # Transaction distribution
system.membus.trans_dist::WriteReq              13905                       # Transaction distribution
system.membus.trans_dist::WriteResp             13905                       # Transaction distribution
system.membus.trans_dist::Writeback            149854                       # Transaction distribution
system.membus.trans_dist::WriteInvalidateReq        46720                       # Transaction distribution
system.membus.trans_dist::WriteInvalidateResp        46720                       # Transaction distribution
system.membus.trans_dist::UpgradeReq             2216                       # Transaction distribution
system.membus.trans_dist::UpgradeResp            1773                       # Transaction distribution
system.membus.trans_dist::ReadExReq            133558                       # Transaction distribution
system.membus.trans_dist::ReadExResp           133558                       # Transaction distribution
system.membus.trans_dist::MessageReq             1643                       # Transaction distribution
system.membus.trans_dist::MessageResp            1643                       # Transaction distribution
system.membus.trans_dist::BadAddressError            9                       # Transaction distribution
system.membus.pkt_count_system.apicbridge.master::system.cpu.interrupts.int_slave         3286                       # Packet count per connected master and slave (bytes)
system.membus.pkt_count_system.apicbridge.master::total         3286                       # Packet count per connected master and slave (bytes)
system.membus.pkt_count_system.cpu.l2cache.mem_side::system.bridge.slave       471626                       # Packet count per connected master and slave (bytes)
system.membus.pkt_count_system.cpu.l2cache.mem_side::system.cpu.interrupts.pio       775064                       # Packet count per connected master and slave (bytes)
system.membus.pkt_count_system.cpu.l2cache.mem_side::system.physmem.port       478050                       # Packet count per connected master and slave (bytes)
system.membus.pkt_count_system.cpu.l2cache.mem_side::system.membus.badaddr_responder.pio           18                       # Packet count per connected master and slave (bytes)
system.membus.pkt_count_system.cpu.l2cache.mem_side::total      1724758                       # Packet count per connected master and slave (bytes)
system.membus.pkt_count_system.iocache.mem_side::system.physmem.port       141461                       # Packet count per connected master and slave (bytes)
system.membus.pkt_count_system.iocache.mem_side::total       141461                       # Packet count per connected master and slave (bytes)
system.membus.pkt_count::total                1869505                       # Packet count per connected master and slave (bytes)
system.membus.pkt_size_system.apicbridge.master::system.cpu.interrupts.int_slave         6572                       # Cumulative packet size per connected master and slave (bytes)
system.membus.pkt_size_system.apicbridge.master::total         6572                       # Cumulative packet size per connected master and slave (bytes)
system.membus.pkt_size_system.cpu.l2cache.mem_side::system.bridge.slave       242096                       # Cumulative packet size per connected master and slave (bytes)
system.membus.pkt_size_system.cpu.l2cache.mem_side::system.cpu.interrupts.pio      1550125                       # Cumulative packet size per connected master and slave (bytes)
system.membus.pkt_size_system.cpu.l2cache.mem_side::system.physmem.port     18451136                       # Cumulative packet size per connected master and slave (bytes)
system.membus.pkt_size_system.cpu.l2cache.mem_side::total     20243357                       # Cumulative packet size per connected master and slave (bytes)
system.membus.pkt_size_system.iocache.mem_side::system.physmem.port      6005120                       # Cumulative packet size per connected master and slave (bytes)
system.membus.pkt_size_system.iocache.mem_side::total      6005120                       # Cumulative packet size per connected master and slave (bytes)
system.membus.pkt_size::total                26255049                       # Cumulative packet size per connected master and slave (bytes)
system.membus.snoops                             1599                       # Total snoops (count)
system.membus.snoop_fanout::samples            385491                       # Request fanout histogram
system.membus.snoop_fanout::mean                    1                       # Request fanout histogram
system.membus.snoop_fanout::stdev                   0                       # Request fanout histogram
system.membus.snoop_fanout::underflows              0      0.00%      0.00% # Request fanout histogram
system.membus.snoop_fanout::0                       0      0.00%      0.00% # Request fanout histogram
system.membus.snoop_fanout::1                  385491    100.00%    100.00% # Request fanout histogram
system.membus.snoop_fanout::2                       0      0.00%    100.00% # Request fanout histogram
system.membus.snoop_fanout::overflows               0      0.00%    100.00% # Request fanout histogram
system.membus.snoop_fanout::min_value               1                       # Request fanout histogram
system.membus.snoop_fanout::max_value               1                       # Request fanout histogram
system.membus.snoop_fanout::total              385491                       # Request fanout histogram
system.membus.reqLayer0.occupancy           251614500                       # Layer occupancy (ticks)
system.membus.reqLayer0.utilization               0.0                       # Layer utilization (%)
system.membus.reqLayer1.occupancy           583372000                       # Layer occupancy (ticks)
system.membus.reqLayer1.utilization               0.0                       # Layer utilization (%)
system.membus.reqLayer2.occupancy             3286000                       # Layer occupancy (ticks)
system.membus.reqLayer2.utilization               0.0                       # Layer utilization (%)
system.membus.reqLayer3.occupancy          1995485500                       # Layer occupancy (ticks)
system.membus.reqLayer3.utilization               0.0                       # Layer utilization (%)
system.membus.reqLayer4.occupancy               10500                       # Layer occupancy (ticks)
system.membus.reqLayer4.utilization               0.0                       # Layer utilization (%)
system.membus.respLayer0.occupancy            1643000                       # Layer occupancy (ticks)
system.membus.respLayer0.utilization              0.0                       # Layer utilization (%)
system.membus.respLayer2.occupancy         3161579497                       # Layer occupancy (ticks)
system.membus.respLayer2.utilization              0.1                       # Layer utilization (%)
system.membus.respLayer4.occupancy           54941740                       # Layer occupancy (ticks)
system.membus.respLayer4.utilization              0.0                       # Layer utilization (%)
system.pc.south_bridge.ide.disks0.dma_read_full_pages            0                       # Number of full page size DMA reads (not PRD).
system.pc.south_bridge.ide.disks0.dma_read_bytes        34816                       # Number of bytes transfered via DMA reads (not PRD).
system.pc.south_bridge.ide.disks0.dma_read_txs           32                       # Number of DMA read transactions (not PRD).
system.pc.south_bridge.ide.disks0.dma_write_full_pages          693                       # Number of full page size DMA writes.
system.pc.south_bridge.ide.disks0.dma_write_bytes      2985984                       # Number of bytes transfered via DMA writes.
system.pc.south_bridge.ide.disks0.dma_write_txs          812                       # Number of DMA write transactions.
system.pc.south_bridge.ide.disks1.dma_read_full_pages            0                       # Number of full page size DMA reads (not PRD).
system.pc.south_bridge.ide.disks1.dma_read_bytes            0                       # Number of bytes transfered via DMA reads (not PRD).
system.pc.south_bridge.ide.disks1.dma_read_txs            0                       # Number of DMA read transactions (not PRD).
system.pc.south_bridge.ide.disks1.dma_write_full_pages            1                       # Number of full page size DMA writes.
system.pc.south_bridge.ide.disks1.dma_write_bytes         4096                       # Number of bytes transfered via DMA writes.
system.pc.south_bridge.ide.disks1.dma_write_txs            1                       # Number of DMA write transactions.
system.cpu.kern.inst.arm                            0                       # number of arm instructions executed
system.cpu.kern.inst.quiesce                        0                       # number of quiesce instructions executed

---------- End Simulation Statistics   ----------
