gem5 Simulator System.  http://gem5.org
gem5 is copyrighted software; use the --copyright option for details.

gem5 compiled Dec  3 2015 15:48:05
gem5 started Dec  3 2015 18:14:24
gem5 executing on e104799-lin, pid 6415
command line: build/ARM/gem5.opt -d build/ARM/tests/opt/long/fs/10.linux-boot/arm/linux/realview-switcheroo-o3 -re /work/gem5/outgoing/gem5/tests/run.py build/ARM/tests/opt/long/fs/10.linux-boot/arm/linux/realview-switcheroo-o3

Global frequency set at 1000000000000 ticks per second
