
---------- Begin Simulation Statistics ----------
sim_seconds                                 51.781056                       # Number of seconds simulated
sim_ticks                                51781056074000                       # Number of ticks simulated
final_tick                               51781056074000                       # Number of ticks from beginning of simulation (restored from checkpoints and never reset)
sim_freq                                 1000000000000                       # Frequency of simulated ticks
host_inst_rate                                 717486                       # Simulator instruction rate (inst/s)
host_op_rate                                   843154                       # Simulator op (including micro ops) rate (op/s)
host_tick_rate                            44175728553                       # Simulator tick rate (ticks/s)
host_mem_usage                                 650840                       # Number of bytes of host memory used
host_seconds                                  1172.16                       # Real time elapsed on the host
sim_insts                                   841009423                       # Number of instructions simulated
sim_ops                                     988312418                       # Number of ops (including micro ops) simulated
system.voltage_domain.voltage                       1                       # Voltage in Volts
system.clk_domain.clock                          1000                       # Clock period in ticks
system.physmem.bytes_read::realview.ide        385216                       # Number of bytes read from this memory
system.physmem.bytes_read::cpu.dtb.walker       437760                       # Number of bytes read from this memory
system.physmem.bytes_read::cpu.itb.walker       790272                       # Number of bytes read from this memory
system.physmem.bytes_read::cpu.inst           4324596                       # Number of bytes read from this memory
system.physmem.bytes_read::cpu.data          53060296                       # Number of bytes read from this memory
system.physmem.bytes_read::total             58998140                       # Number of bytes read from this memory
system.physmem.bytes_inst_read::cpu.inst      4324596                       # Number of instructions bytes read from this memory
system.physmem.bytes_inst_read::total         4324596                       # Number of instructions bytes read from this memory
system.physmem.bytes_written::writebacks     30687936                       # Number of bytes written to this memory
system.physmem.bytes_written::realview.ide      6826496                       # Number of bytes written to this memory
system.physmem.bytes_written::cpu.data       99485540                       # Number of bytes written to this memory
system.physmem.bytes_written::total         136999972                       # Number of bytes written to this memory
system.physmem.num_reads::realview.ide           6019                       # Number of read requests responded to by this memory
system.physmem.num_reads::cpu.dtb.walker         6840                       # Number of read requests responded to by this memory
system.physmem.num_reads::cpu.itb.walker        12348                       # Number of read requests responded to by this memory
system.physmem.num_reads::cpu.inst             107979                       # Number of read requests responded to by this memory
system.physmem.num_reads::cpu.data             829080                       # Number of read requests responded to by this memory
system.physmem.num_reads::total                962266                       # Number of read requests responded to by this memory
system.physmem.num_writes::writebacks          479499                       # Number of write requests responded to by this memory
system.physmem.num_writes::realview.ide        106664                       # Number of write requests responded to by this memory
system.physmem.num_writes::cpu.data           1556713                       # Number of write requests responded to by this memory
system.physmem.num_writes::total              2142876                       # Number of write requests responded to by this memory
system.physmem.bw_read::realview.ide             7439                       # Total read bandwidth from this memory (bytes/s)
system.physmem.bw_read::cpu.dtb.walker           8454                       # Total read bandwidth from this memory (bytes/s)
system.physmem.bw_read::cpu.itb.walker          15262                       # Total read bandwidth from this memory (bytes/s)
system.physmem.bw_read::cpu.inst                83517                       # Total read bandwidth from this memory (bytes/s)
system.physmem.bw_read::cpu.data              1024705                       # Total read bandwidth from this memory (bytes/s)
system.physmem.bw_read::total                 1139377                       # Total read bandwidth from this memory (bytes/s)
system.physmem.bw_inst_read::cpu.inst           83517                       # Instruction read bandwidth from this memory (bytes/s)
system.physmem.bw_inst_read::total              83517                       # Instruction read bandwidth from this memory (bytes/s)
system.physmem.bw_write::writebacks            592648                       # Write bandwidth from this memory (bytes/s)
system.physmem.bw_write::realview.ide          131834                       # Write bandwidth from this memory (bytes/s)
system.physmem.bw_write::cpu.data             1921273                       # Write bandwidth from this memory (bytes/s)
system.physmem.bw_write::total                2645755                       # Write bandwidth from this memory (bytes/s)
system.physmem.bw_total::writebacks            592648                       # Total bandwidth to/from this memory (bytes/s)
system.physmem.bw_total::realview.ide          139273                       # Total bandwidth to/from this memory (bytes/s)
system.physmem.bw_total::cpu.dtb.walker          8454                       # Total bandwidth to/from this memory (bytes/s)
system.physmem.bw_total::cpu.itb.walker         15262                       # Total bandwidth to/from this memory (bytes/s)
system.physmem.bw_total::cpu.inst               83517                       # Total bandwidth to/from this memory (bytes/s)
system.physmem.bw_total::cpu.data             2945978                       # Total bandwidth to/from this memory (bytes/s)
system.physmem.bw_total::total                3785132                       # Total bandwidth to/from this memory (bytes/s)
system.physmem.readReqs                        962266                       # Number of read requests accepted
system.physmem.writeReqs                      2142876                       # Number of write requests accepted
system.physmem.readBursts                      962266                       # Number of DRAM read bursts, including those serviced by the write queue
system.physmem.writeBursts                    2142876                       # Number of DRAM write bursts, including those merged in the write queue
system.physmem.bytesReadDRAM                 61369728                       # Total number of bytes read from DRAM
system.physmem.bytesReadWrQ                    215296                       # Total number of bytes read from write queue
system.physmem.bytesWritten                 132432768                       # Total number of bytes written to DRAM
system.physmem.bytesReadSys                  58998140                       # Total read bytes from the system interface side
system.physmem.bytesWrittenSys              136999972                       # Total written bytes from the system interface side
system.physmem.servicedByWrQ                     3364                       # Number of DRAM read bursts serviced by the write queue
system.physmem.mergedWrBursts                   73592                       # Number of DRAM write bursts merged with an existing one
system.physmem.neitherReadNorWriteReqs          33443                       # Number of requests that are neither read nor write
system.physmem.perBankRdBursts::0               65026                       # Per bank write bursts
system.physmem.perBankRdBursts::1               59757                       # Per bank write bursts
system.physmem.perBankRdBursts::2               57697                       # Per bank write bursts
system.physmem.perBankRdBursts::3               55201                       # Per bank write bursts
system.physmem.perBankRdBursts::4               59686                       # Per bank write bursts
system.physmem.perBankRdBursts::5               66424                       # Per bank write bursts
system.physmem.perBankRdBursts::6               54909                       # Per bank write bursts
system.physmem.perBankRdBursts::7               46752                       # Per bank write bursts
system.physmem.perBankRdBursts::8               56185                       # Per bank write bursts
system.physmem.perBankRdBursts::9              105428                       # Per bank write bursts
system.physmem.perBankRdBursts::10              56738                       # Per bank write bursts
system.physmem.perBankRdBursts::11              56925                       # Per bank write bursts
system.physmem.perBankRdBursts::12              52656                       # Per bank write bursts
system.physmem.perBankRdBursts::13              52461                       # Per bank write bursts
system.physmem.perBankRdBursts::14              54958                       # Per bank write bursts
system.physmem.perBankRdBursts::15              58099                       # Per bank write bursts
system.physmem.perBankWrBursts::0              127089                       # Per bank write bursts
system.physmem.perBankWrBursts::1              113639                       # Per bank write bursts
system.physmem.perBankWrBursts::2              227284                       # Per bank write bursts
system.physmem.perBankWrBursts::3              120346                       # Per bank write bursts
system.physmem.perBankWrBursts::4              128596                       # Per bank write bursts
system.physmem.perBankWrBursts::5              124885                       # Per bank write bursts
system.physmem.perBankWrBursts::6              105979                       # Per bank write bursts
system.physmem.perBankWrBursts::7               88244                       # Per bank write bursts
system.physmem.perBankWrBursts::8              113178                       # Per bank write bursts
system.physmem.perBankWrBursts::9              146103                       # Per bank write bursts
system.physmem.perBankWrBursts::10             105873                       # Per bank write bursts
system.physmem.perBankWrBursts::11             119118                       # Per bank write bursts
system.physmem.perBankWrBursts::12             106014                       # Per bank write bursts
system.physmem.perBankWrBursts::13             144894                       # Per bank write bursts
system.physmem.perBankWrBursts::14             168059                       # Per bank write bursts
system.physmem.perBankWrBursts::15             129961                       # Per bank write bursts
system.physmem.numRdRetry                           0                       # Number of times read queue was full causing retry
system.physmem.numWrRetry                          15                       # Number of times write queue was full causing retry
system.physmem.totGap                    51781053518000                       # Total gap between requests
system.physmem.readPktSize::0                       0                       # Read request sizes (log2)
system.physmem.readPktSize::1                       0                       # Read request sizes (log2)
system.physmem.readPktSize::2                   43101                       # Read request sizes (log2)
system.physmem.readPktSize::3                      13                       # Read request sizes (log2)
system.physmem.readPktSize::4                       2                       # Read request sizes (log2)
system.physmem.readPktSize::5                       0                       # Read request sizes (log2)
system.physmem.readPktSize::6                  919150                       # Read request sizes (log2)
system.physmem.writePktSize::0                      0                       # Write request sizes (log2)
system.physmem.writePktSize::1                      0                       # Write request sizes (log2)
system.physmem.writePktSize::2                      1                       # Write request sizes (log2)
system.physmem.writePktSize::3                   2572                       # Write request sizes (log2)
system.physmem.writePktSize::4                      0                       # Write request sizes (log2)
system.physmem.writePktSize::5                      0                       # Write request sizes (log2)
system.physmem.writePktSize::6                2140303                       # Write request sizes (log2)
system.physmem.rdQLenPdf::0                    916619                       # What read queue length does an incoming req see
system.physmem.rdQLenPdf::1                     36737                       # What read queue length does an incoming req see
system.physmem.rdQLenPdf::2                      2160                       # What read queue length does an incoming req see
system.physmem.rdQLenPdf::3                       554                       # What read queue length does an incoming req see
system.physmem.rdQLenPdf::4                       703                       # What read queue length does an incoming req see
system.physmem.rdQLenPdf::5                       360                       # What read queue length does an incoming req see
system.physmem.rdQLenPdf::6                       332                       # What read queue length does an incoming req see
system.physmem.rdQLenPdf::7                       262                       # What read queue length does an incoming req see
system.physmem.rdQLenPdf::8                       188                       # What read queue length does an incoming req see
system.physmem.rdQLenPdf::9                       124                       # What read queue length does an incoming req see
system.physmem.rdQLenPdf::10                      116                       # What read queue length does an incoming req see
system.physmem.rdQLenPdf::11                      110                       # What read queue length does an incoming req see
system.physmem.rdQLenPdf::12                      103                       # What read queue length does an incoming req see
system.physmem.rdQLenPdf::13                       99                       # What read queue length does an incoming req see
system.physmem.rdQLenPdf::14                       93                       # What read queue length does an incoming req see
system.physmem.rdQLenPdf::15                       91                       # What read queue length does an incoming req see
system.physmem.rdQLenPdf::16                       80                       # What read queue length does an incoming req see
system.physmem.rdQLenPdf::17                       78                       # What read queue length does an incoming req see
system.physmem.rdQLenPdf::18                       50                       # What read queue length does an incoming req see
system.physmem.rdQLenPdf::19                       40                       # What read queue length does an incoming req see
system.physmem.rdQLenPdf::20                        3                       # What read queue length does an incoming req see
system.physmem.rdQLenPdf::21                        0                       # What read queue length does an incoming req see
system.physmem.rdQLenPdf::22                        0                       # What read queue length does an incoming req see
system.physmem.rdQLenPdf::23                        0                       # What read queue length does an incoming req see
system.physmem.rdQLenPdf::24                        0                       # What read queue length does an incoming req see
system.physmem.rdQLenPdf::25                        0                       # What read queue length does an incoming req see
system.physmem.rdQLenPdf::26                        0                       # What read queue length does an incoming req see
system.physmem.rdQLenPdf::27                        0                       # What read queue length does an incoming req see
system.physmem.rdQLenPdf::28                        0                       # What read queue length does an incoming req see
system.physmem.rdQLenPdf::29                        0                       # What read queue length does an incoming req see
system.physmem.rdQLenPdf::30                        0                       # What read queue length does an incoming req see
system.physmem.rdQLenPdf::31                        0                       # What read queue length does an incoming req see
system.physmem.wrQLenPdf::0                         1                       # What write queue length does an incoming req see
system.physmem.wrQLenPdf::1                         1                       # What write queue length does an incoming req see
system.physmem.wrQLenPdf::2                         1                       # What write queue length does an incoming req see
system.physmem.wrQLenPdf::3                         1                       # What write queue length does an incoming req see
system.physmem.wrQLenPdf::4                         1                       # What write queue length does an incoming req see
system.physmem.wrQLenPdf::5                         1                       # What write queue length does an incoming req see
system.physmem.wrQLenPdf::6                         1                       # What write queue length does an incoming req see
system.physmem.wrQLenPdf::7                         1                       # What write queue length does an incoming req see
system.physmem.wrQLenPdf::8                         1                       # What write queue length does an incoming req see
system.physmem.wrQLenPdf::9                         1                       # What write queue length does an incoming req see
system.physmem.wrQLenPdf::10                        1                       # What write queue length does an incoming req see
system.physmem.wrQLenPdf::11                        1                       # What write queue length does an incoming req see
system.physmem.wrQLenPdf::12                        1                       # What write queue length does an incoming req see
system.physmem.wrQLenPdf::13                        1                       # What write queue length does an incoming req see
system.physmem.wrQLenPdf::14                        1                       # What write queue length does an incoming req see
system.physmem.wrQLenPdf::15                    84352                       # What write queue length does an incoming req see
system.physmem.wrQLenPdf::16                   107983                       # What write queue length does an incoming req see
system.physmem.wrQLenPdf::17                   131098                       # What write queue length does an incoming req see
system.physmem.wrQLenPdf::18                   115210                       # What write queue length does an incoming req see
system.physmem.wrQLenPdf::19                   123261                       # What write queue length does an incoming req see
system.physmem.wrQLenPdf::20                   119542                       # What write queue length does an incoming req see
system.physmem.wrQLenPdf::21                   117814                       # What write queue length does an incoming req see
system.physmem.wrQLenPdf::22                   132602                       # What write queue length does an incoming req see
system.physmem.wrQLenPdf::23                   122703                       # What write queue length does an incoming req see
system.physmem.wrQLenPdf::24                   125765                       # What write queue length does an incoming req see
system.physmem.wrQLenPdf::25                   114111                       # What write queue length does an incoming req see
system.physmem.wrQLenPdf::26                   113634                       # What write queue length does an incoming req see
system.physmem.wrQLenPdf::27                   111086                       # What write queue length does an incoming req see
system.physmem.wrQLenPdf::28                   110215                       # What write queue length does an incoming req see
system.physmem.wrQLenPdf::29                   107145                       # What write queue length does an incoming req see
system.physmem.wrQLenPdf::30                   106644                       # What write queue length does an incoming req see
system.physmem.wrQLenPdf::31                   107279                       # What write queue length does an incoming req see
system.physmem.wrQLenPdf::32                   104685                       # What write queue length does an incoming req see
system.physmem.wrQLenPdf::33                     2704                       # What write queue length does an incoming req see
system.physmem.wrQLenPdf::34                     2147                       # What write queue length does an incoming req see
system.physmem.wrQLenPdf::35                     1714                       # What write queue length does an incoming req see
system.physmem.wrQLenPdf::36                     1256                       # What write queue length does an incoming req see
system.physmem.wrQLenPdf::37                      957                       # What write queue length does an incoming req see
system.physmem.wrQLenPdf::38                      643                       # What write queue length does an incoming req see
system.physmem.wrQLenPdf::39                      439                       # What write queue length does an incoming req see
system.physmem.wrQLenPdf::40                      337                       # What write queue length does an incoming req see
system.physmem.wrQLenPdf::41                      303                       # What write queue length does an incoming req see
system.physmem.wrQLenPdf::42                      280                       # What write queue length does an incoming req see
system.physmem.wrQLenPdf::43                      299                       # What write queue length does an incoming req see
system.physmem.wrQLenPdf::44                      327                       # What write queue length does an incoming req see
system.physmem.wrQLenPdf::45                      330                       # What write queue length does an incoming req see
system.physmem.wrQLenPdf::46                      302                       # What write queue length does an incoming req see
system.physmem.wrQLenPdf::47                      285                       # What write queue length does an incoming req see
system.physmem.wrQLenPdf::48                      261                       # What write queue length does an incoming req see
system.physmem.wrQLenPdf::49                      233                       # What write queue length does an incoming req see
system.physmem.wrQLenPdf::50                      208                       # What write queue length does an incoming req see
system.physmem.wrQLenPdf::51                      161                       # What write queue length does an incoming req see
system.physmem.wrQLenPdf::52                      140                       # What write queue length does an incoming req see
system.physmem.wrQLenPdf::53                      123                       # What write queue length does an incoming req see
system.physmem.wrQLenPdf::54                      107                       # What write queue length does an incoming req see
system.physmem.wrQLenPdf::55                       97                       # What write queue length does an incoming req see
system.physmem.wrQLenPdf::56                       89                       # What write queue length does an incoming req see
system.physmem.wrQLenPdf::57                       80                       # What write queue length does an incoming req see
system.physmem.wrQLenPdf::58                       65                       # What write queue length does an incoming req see
system.physmem.wrQLenPdf::59                       65                       # What write queue length does an incoming req see
system.physmem.wrQLenPdf::60                       55                       # What write queue length does an incoming req see
system.physmem.wrQLenPdf::61                       53                       # What write queue length does an incoming req see
system.physmem.wrQLenPdf::62                       37                       # What write queue length does an incoming req see
system.physmem.wrQLenPdf::63                       43                       # What write queue length does an incoming req see
system.physmem.bytesPerActivate::samples       577071                       # Bytes accessed per row activation
system.physmem.bytesPerActivate::mean      335.837219                       # Bytes accessed per row activation
system.physmem.bytesPerActivate::gmean     186.071808                       # Bytes accessed per row activation
system.physmem.bytesPerActivate::stdev     364.354794                       # Bytes accessed per row activation
system.physmem.bytesPerActivate::0-127         225600     39.09%     39.09% # Bytes accessed per row activation
system.physmem.bytesPerActivate::128-255       129681     22.47%     61.57% # Bytes accessed per row activation
system.physmem.bytesPerActivate::256-383        48337      8.38%     69.94% # Bytes accessed per row activation
system.physmem.bytesPerActivate::384-511        25344      4.39%     74.33% # Bytes accessed per row activation
system.physmem.bytesPerActivate::512-639        16032      2.78%     77.11% # Bytes accessed per row activation
system.physmem.bytesPerActivate::640-767        12773      2.21%     79.33% # Bytes accessed per row activation
system.physmem.bytesPerActivate::768-895         9903      1.72%     81.04% # Bytes accessed per row activation
system.physmem.bytesPerActivate::896-1023        10527      1.82%     82.87% # Bytes accessed per row activation
system.physmem.bytesPerActivate::1024-1151        98874     17.13%    100.00% # Bytes accessed per row activation
system.physmem.bytesPerActivate::total         577071                       # Bytes accessed per row activation
system.physmem.rdPerTurnAround::samples        103651                       # Reads before turning the bus around for writes
system.physmem.rdPerTurnAround::mean         9.251131                       # Reads before turning the bus around for writes
system.physmem.rdPerTurnAround::stdev      174.136795                       # Reads before turning the bus around for writes
system.physmem.rdPerTurnAround::0-2047         103646    100.00%    100.00% # Reads before turning the bus around for writes
system.physmem.rdPerTurnAround::2048-4095            1      0.00%    100.00% # Reads before turning the bus around for writes
system.physmem.rdPerTurnAround::4096-6143            1      0.00%    100.00% # Reads before turning the bus around for writes
system.physmem.rdPerTurnAround::20480-22527            1      0.00%    100.00% # Reads before turning the bus around for writes
system.physmem.rdPerTurnAround::22528-24575            1      0.00%    100.00% # Reads before turning the bus around for writes
system.physmem.rdPerTurnAround::43008-45055            1      0.00%    100.00% # Reads before turning the bus around for writes
system.physmem.rdPerTurnAround::total          103651                       # Reads before turning the bus around for writes
system.physmem.wrPerTurnAround::samples        103651                       # Writes before turning the bus around for reads
system.physmem.wrPerTurnAround::mean        19.963744                       # Writes before turning the bus around for reads
system.physmem.wrPerTurnAround::gmean       19.612401                       # Writes before turning the bus around for reads
system.physmem.wrPerTurnAround::stdev        5.068688                       # Writes before turning the bus around for reads
system.physmem.wrPerTurnAround::16-19           47209     45.55%     45.55% # Writes before turning the bus around for reads
system.physmem.wrPerTurnAround::20-23           51400     49.59%     95.14% # Writes before turning the bus around for reads
system.physmem.wrPerTurnAround::24-27            1703      1.64%     96.78% # Writes before turning the bus around for reads
system.physmem.wrPerTurnAround::28-31            1371      1.32%     98.10% # Writes before turning the bus around for reads
system.physmem.wrPerTurnAround::32-35             882      0.85%     98.95% # Writes before turning the bus around for reads
system.physmem.wrPerTurnAround::36-39             145      0.14%     99.09% # Writes before turning the bus around for reads
system.physmem.wrPerTurnAround::40-43             167      0.16%     99.25% # Writes before turning the bus around for reads
system.physmem.wrPerTurnAround::44-47              75      0.07%     99.33% # Writes before turning the bus around for reads
system.physmem.wrPerTurnAround::48-51              86      0.08%     99.41% # Writes before turning the bus around for reads
system.physmem.wrPerTurnAround::52-55              15      0.01%     99.42% # Writes before turning the bus around for reads
system.physmem.wrPerTurnAround::56-59              11      0.01%     99.43% # Writes before turning the bus around for reads
system.physmem.wrPerTurnAround::60-63              14      0.01%     99.45% # Writes before turning the bus around for reads
system.physmem.wrPerTurnAround::64-67             393      0.38%     99.83% # Writes before turning the bus around for reads
system.physmem.wrPerTurnAround::68-71              31      0.03%     99.86% # Writes before turning the bus around for reads
system.physmem.wrPerTurnAround::72-75              40      0.04%     99.89% # Writes before turning the bus around for reads
system.physmem.wrPerTurnAround::76-79              32      0.03%     99.93% # Writes before turning the bus around for reads
system.physmem.wrPerTurnAround::80-83              31      0.03%     99.96% # Writes before turning the bus around for reads
system.physmem.wrPerTurnAround::84-87               1      0.00%     99.96% # Writes before turning the bus around for reads
system.physmem.wrPerTurnAround::88-91               1      0.00%     99.96% # Writes before turning the bus around for reads
system.physmem.wrPerTurnAround::92-95               1      0.00%     99.96% # Writes before turning the bus around for reads
system.physmem.wrPerTurnAround::96-99              13      0.01%     99.97% # Writes before turning the bus around for reads
system.physmem.wrPerTurnAround::108-111             2      0.00%     99.97% # Writes before turning the bus around for reads
system.physmem.wrPerTurnAround::112-115             2      0.00%     99.97% # Writes before turning the bus around for reads
system.physmem.wrPerTurnAround::116-119             2      0.00%     99.98% # Writes before turning the bus around for reads
system.physmem.wrPerTurnAround::120-123             1      0.00%     99.98% # Writes before turning the bus around for reads
system.physmem.wrPerTurnAround::124-127             1      0.00%     99.98% # Writes before turning the bus around for reads
system.physmem.wrPerTurnAround::128-131            17      0.02%    100.00% # Writes before turning the bus around for reads
system.physmem.wrPerTurnAround::132-135             3      0.00%    100.00% # Writes before turning the bus around for reads
system.physmem.wrPerTurnAround::140-143             2      0.00%    100.00% # Writes before turning the bus around for reads
system.physmem.wrPerTurnAround::total          103651                       # Writes before turning the bus around for reads
system.physmem.totQLat                    10497513500                       # Total ticks spent queuing
system.physmem.totMemAccLat               28476926000                       # Total ticks spent from burst creation until serviced by the DRAM
system.physmem.totBusLat                   4794510000                       # Total ticks spent in databus transfers
system.physmem.avgQLat                       10947.43                       # Average queueing delay per DRAM burst
system.physmem.avgBusLat                      5000.00                       # Average bus latency per DRAM burst
system.physmem.avgMemAccLat                  29697.43                       # Average memory access latency per DRAM burst
system.physmem.avgRdBW                           1.19                       # Average DRAM read bandwidth in MiByte/s
system.physmem.avgWrBW                           2.56                       # Average achieved write bandwidth in MiByte/s
system.physmem.avgRdBWSys                        1.14                       # Average system read bandwidth in MiByte/s
system.physmem.avgWrBWSys                        2.65                       # Average system write bandwidth in MiByte/s
system.physmem.peakBW                        12800.00                       # Theoretical peak bandwidth in MiByte/s
system.physmem.busUtil                           0.03                       # Data bus utilization in percentage
system.physmem.busUtilRead                       0.01                       # Data bus utilization in percentage for reads
system.physmem.busUtilWrite                      0.02                       # Data bus utilization in percentage for writes
system.physmem.avgRdQLen                         1.00                       # Average read queue length when enqueuing
system.physmem.avgWrQLen                        24.00                       # Average write queue length when enqueuing
system.physmem.readRowHits                     723659                       # Number of row buffer hits during reads
system.physmem.writeRowHits                   1727431                       # Number of row buffer hits during writes
system.physmem.readRowHitRate                   75.47                       # Row buffer hit rate for reads
system.physmem.writeRowHitRate                  83.48                       # Row buffer hit rate for writes
system.physmem.avgGap                     16675905.17                       # Average gap between requests
system.physmem.pageHitRate                      80.94                       # Row buffer hit rate, read and write combined
system.physmem.memoryStateTime::IDLE     49473510377000                       # Time in different power states
system.physmem.memoryStateTime::REF      1729083200000                       # Time in different power states
system.physmem.memoryStateTime::PRE_PDN             0                       # Time in different power states
system.physmem.memoryStateTime::ACT      578461163500                       # Time in different power states
system.physmem.memoryStateTime::ACT_PDN             0                       # Time in different power states
system.physmem.actEnergy::0                2226745080                       # Energy for activate commands per rank (pJ)
system.physmem.actEnergy::1                2135911680                       # Energy for activate commands per rank (pJ)
system.physmem.preEnergy::0                1214989875                       # Energy for precharge commands per rank (pJ)
system.physmem.preEnergy::1                1165428000                       # Energy for precharge commands per rank (pJ)
system.physmem.readEnergy::0               3630494400                       # Energy for read commands per rank (pJ)
system.physmem.readEnergy::1               3848871000                       # Energy for read commands per rank (pJ)
system.physmem.writeEnergy::0              6713681760                       # Energy for write commands per rank (pJ)
system.physmem.writeEnergy::1              6695136000                       # Energy for write commands per rank (pJ)
system.physmem.refreshEnergy::0          3382086739200                       # Energy for refresh commands per rank (pJ)
system.physmem.refreshEnergy::1          3382086739200                       # Energy for refresh commands per rank (pJ)
system.physmem.actBackEnergy::0          1381227557085                       # Energy for active background per rank (pJ)
system.physmem.actBackEnergy::1          1374892031880                       # Energy for active background per rank (pJ)
system.physmem.preBackEnergy::0          29857029495750                       # Energy for precharge background per rank (pJ)
system.physmem.preBackEnergy::1          29862586974000                       # Energy for precharge background per rank (pJ)
system.physmem.totalEnergy::0            34634129703150                       # Total energy per rank (pJ)
system.physmem.totalEnergy::1            34633411091760                       # Total energy per rank (pJ)
system.physmem.averagePower::0             668.857174                       # Core power per rank (mW)
system.physmem.averagePower::1             668.843296                       # Core power per rank (mW)
system.realview.nvmem.bytes_read::cpu.inst           96                       # Number of bytes read from this memory
system.realview.nvmem.bytes_read::cpu.data           36                       # Number of bytes read from this memory
system.realview.nvmem.bytes_read::total           132                       # Number of bytes read from this memory
system.realview.nvmem.bytes_inst_read::cpu.inst           96                       # Number of instructions bytes read from this memory
system.realview.nvmem.bytes_inst_read::total           96                       # Number of instructions bytes read from this memory
system.realview.nvmem.num_reads::cpu.inst           24                       # Number of read requests responded to by this memory
system.realview.nvmem.num_reads::cpu.data            5                       # Number of read requests responded to by this memory
system.realview.nvmem.num_reads::total             29                       # Number of read requests responded to by this memory
system.realview.nvmem.bw_read::cpu.inst             2                       # Total read bandwidth from this memory (bytes/s)
system.realview.nvmem.bw_read::cpu.data             1                       # Total read bandwidth from this memory (bytes/s)
system.realview.nvmem.bw_read::total                3                       # Total read bandwidth from this memory (bytes/s)
system.realview.nvmem.bw_inst_read::cpu.inst            2                       # Instruction read bandwidth from this memory (bytes/s)
system.realview.nvmem.bw_inst_read::total            2                       # Instruction read bandwidth from this memory (bytes/s)
system.realview.nvmem.bw_total::cpu.inst            2                       # Total bandwidth to/from this memory (bytes/s)
system.realview.nvmem.bw_total::cpu.data            1                       # Total bandwidth to/from this memory (bytes/s)
system.realview.nvmem.bw_total::total               3                       # Total bandwidth to/from this memory (bytes/s)
system.membus.trans_dist::ReadReq              445419                       # Transaction distribution
system.membus.trans_dist::ReadResp             445419                       # Transaction distribution
system.membus.trans_dist::WriteReq              33871                       # Transaction distribution
system.membus.trans_dist::WriteResp             33871                       # Transaction distribution
system.membus.trans_dist::Writeback            479499                       # Transaction distribution
system.membus.trans_dist::WriteInvalidateReq      1660804                       # Transaction distribution
system.membus.trans_dist::WriteInvalidateResp      1660804                       # Transaction distribution
system.membus.trans_dist::UpgradeReq            33447                       # Transaction distribution
system.membus.trans_dist::SCUpgradeReq              2                       # Transaction distribution
system.membus.trans_dist::UpgradeResp           33449                       # Transaction distribution
system.membus.trans_dist::ReadExReq            553497                       # Transaction distribution
system.membus.trans_dist::ReadExResp           553497                       # Transaction distribution
system.membus.pkt_count_system.cpu.l2cache.mem_side::system.bridge.slave       123190                       # Packet count per connected master and slave (bytes)
system.membus.pkt_count_system.cpu.l2cache.mem_side::system.realview.nvmem.port           58                       # Packet count per connected master and slave (bytes)
system.membus.pkt_count_system.cpu.l2cache.mem_side::system.realview.gic.pio         6936                       # Packet count per connected master and slave (bytes)
system.membus.pkt_count_system.cpu.l2cache.mem_side::system.physmem.port      5572311                       # Packet count per connected master and slave (bytes)
system.membus.pkt_count_system.cpu.l2cache.mem_side::total      5702495                       # Packet count per connected master and slave (bytes)
system.membus.pkt_count_system.iocache.mem_side::system.physmem.port       228222                       # Packet count per connected master and slave (bytes)
system.membus.pkt_count_system.iocache.mem_side::total       228222                       # Packet count per connected master and slave (bytes)
system.membus.pkt_count::total                5930717                       # Packet count per connected master and slave (bytes)
system.membus.pkt_size_system.cpu.l2cache.mem_side::system.bridge.slave       156320                       # Cumulative packet size per connected master and slave (bytes)
system.membus.pkt_size_system.cpu.l2cache.mem_side::system.realview.nvmem.port          132                       # Cumulative packet size per connected master and slave (bytes)
system.membus.pkt_size_system.cpu.l2cache.mem_side::system.realview.gic.pio        13872                       # Cumulative packet size per connected master and slave (bytes)
system.membus.pkt_size_system.cpu.l2cache.mem_side::system.physmem.port    188786400                       # Cumulative packet size per connected master and slave (bytes)
system.membus.pkt_size_system.cpu.l2cache.mem_side::total    188956724                       # Cumulative packet size per connected master and slave (bytes)
system.membus.pkt_size_system.iocache.mem_side::system.physmem.port      7211712                       # Cumulative packet size per connected master and slave (bytes)
system.membus.pkt_size_system.iocache.mem_side::total      7211712                       # Cumulative packet size per connected master and slave (bytes)
system.membus.pkt_size::total               196168436                       # Cumulative packet size per connected master and slave (bytes)
system.membus.snoops                             2862                       # Total snoops (count)
system.membus.snoop_fanout::samples           3095773                       # Request fanout histogram
system.membus.snoop_fanout::mean                    1                       # Request fanout histogram
system.membus.snoop_fanout::stdev                   0                       # Request fanout histogram
system.membus.snoop_fanout::underflows              0      0.00%      0.00% # Request fanout histogram
system.membus.snoop_fanout::0                       0      0.00%      0.00% # Request fanout histogram
system.membus.snoop_fanout::1                 3095773    100.00%    100.00% # Request fanout histogram
system.membus.snoop_fanout::2                       0      0.00%    100.00% # Request fanout histogram
system.membus.snoop_fanout::overflows               0      0.00%    100.00% # Request fanout histogram
system.membus.snoop_fanout::min_value               1                       # Request fanout histogram
system.membus.snoop_fanout::max_value               1                       # Request fanout histogram
system.membus.snoop_fanout::total             3095773                       # Request fanout histogram
system.membus.reqLayer0.occupancy           106099500                       # Layer occupancy (ticks)
system.membus.reqLayer0.utilization               0.0                       # Layer utilization (%)
system.membus.reqLayer1.occupancy               31000                       # Layer occupancy (ticks)
system.membus.reqLayer1.utilization               0.0                       # Layer utilization (%)
system.membus.reqLayer2.occupancy             5682499                       # Layer occupancy (ticks)
system.membus.reqLayer2.utilization               0.0                       # Layer utilization (%)
system.membus.reqLayer5.occupancy         21134514240                       # Layer occupancy (ticks)
system.membus.reqLayer5.utilization               0.0                       # Layer utilization (%)
system.membus.respLayer2.occupancy        11065598028                       # Layer occupancy (ticks)
system.membus.respLayer2.utilization              0.0                       # Layer utilization (%)
system.membus.respLayer3.occupancy          186599963                       # Layer occupancy (ticks)
system.membus.respLayer3.utilization              0.0                       # Layer utilization (%)
system.realview.ethernet.txBytes                  966                       # Bytes Transmitted
system.realview.ethernet.txPackets                  3                       # Number of Packets Transmitted
system.realview.ethernet.txIpChecksums              0                       # Number of tx IP Checksums done by device
system.realview.ethernet.txTcpChecksums             0                       # Number of tx TCP Checksums done by device
system.realview.ethernet.txUdpChecksums             0                       # Number of tx UDP Checksums done by device
system.realview.ethernet.descDMAReads               0                       # Number of descriptors the device read w/ DMA
system.realview.ethernet.descDMAWrites              0                       # Number of descriptors the device wrote w/ DMA
system.realview.ethernet.descDmaReadBytes            0                       # number of descriptor bytes read w/ DMA
system.realview.ethernet.descDmaWriteBytes            0                       # number of descriptor bytes write w/ DMA
system.realview.ethernet.totBandwidth             149                       # Total Bandwidth (bits/s)
system.realview.ethernet.totPackets                 3                       # Total Packets
system.realview.ethernet.totBytes                 966                       # Total Bytes
system.realview.ethernet.totPPS                     0                       # Total Tranmission Rate (packets/s)
system.realview.ethernet.txBandwidth              149                       # Transmit Bandwidth (bits/s)
system.realview.ethernet.txPPS                      0                       # Packet Tranmission Rate (packets/s)
system.realview.ethernet.postedSwi                  0                       # number of software interrupts posted to CPU
system.realview.ethernet.coalescedSwi               0                       # average number of Swi's coalesced into each post
system.realview.ethernet.totalSwi                   0                       # total number of Swi written to ISR
system.realview.ethernet.postedRxIdle               0                       # number of rxIdle interrupts posted to CPU
system.realview.ethernet.coalescedRxIdle            0                       # average number of RxIdle's coalesced into each post
system.realview.ethernet.totalRxIdle                0                       # total number of RxIdle written to ISR
system.realview.ethernet.postedRxOk                 0                       # number of RxOk interrupts posted to CPU
system.realview.ethernet.coalescedRxOk              0                       # average number of RxOk's coalesced into each post
system.realview.ethernet.totalRxOk                  0                       # total number of RxOk written to ISR
system.realview.ethernet.postedRxDesc               0                       # number of RxDesc interrupts posted to CPU
system.realview.ethernet.coalescedRxDesc            0                       # average number of RxDesc's coalesced into each post
system.realview.ethernet.totalRxDesc                0                       # total number of RxDesc written to ISR
system.realview.ethernet.postedTxOk                 0                       # number of TxOk interrupts posted to CPU
system.realview.ethernet.coalescedTxOk              0                       # average number of TxOk's coalesced into each post
system.realview.ethernet.totalTxOk                  0                       # total number of TxOk written to ISR
system.realview.ethernet.postedTxIdle               0                       # number of TxIdle interrupts posted to CPU
system.realview.ethernet.coalescedTxIdle            0                       # average number of TxIdle's coalesced into each post
system.realview.ethernet.totalTxIdle                0                       # total number of TxIdle written to ISR
system.realview.ethernet.postedTxDesc               0                       # number of TxDesc interrupts posted to CPU
system.realview.ethernet.coalescedTxDesc            0                       # average number of TxDesc's coalesced into each post
system.realview.ethernet.totalTxDesc                0                       # total number of TxDesc written to ISR
system.realview.ethernet.postedRxOrn                0                       # number of RxOrn posted to CPU
system.realview.ethernet.coalescedRxOrn             0                       # average number of RxOrn's coalesced into each post
system.realview.ethernet.totalRxOrn                 0                       # total number of RxOrn written to ISR
system.realview.ethernet.coalescedTotal             0                       # average number of interrupts coalesced into each post
system.realview.ethernet.postedInterrupts           13                       # number of posts to CPU
system.realview.ethernet.droppedPackets             0                       # number of packets dropped
system.cf0.dma_read_full_pages                    122                       # Number of full page size DMA reads (not PRD).
system.cf0.dma_read_bytes                      499712                       # Number of bytes transfered via DMA reads (not PRD).
system.cf0.dma_read_txs                           122                       # Number of DMA read transactions (not PRD).
system.cf0.dma_write_full_pages                  1666                       # Number of full page size DMA writes.
system.cf0.dma_write_bytes                    6826496                       # Number of bytes transfered via DMA writes.
system.cf0.dma_write_txs                         1669                       # Number of DMA write transactions.
system.iobus.trans_dist::ReadReq                40401                       # Transaction distribution
system.iobus.trans_dist::ReadResp               40401                       # Transaction distribution
system.iobus.trans_dist::WriteReq              136730                       # Transaction distribution
system.iobus.trans_dist::WriteResp             136733                       # Transaction distribution
system.iobus.trans_dist::WriteInvalidateReq            3                       # Transaction distribution
system.iobus.pkt_count_system.bridge.master::system.realview.uart.pio        48308                       # Packet count per connected master and slave (bytes)
system.iobus.pkt_count_system.bridge.master::system.realview.realview_io.pio           14                       # Packet count per connected master and slave (bytes)
system.iobus.pkt_count_system.bridge.master::system.realview.timer0.pio           16                       # Packet count per connected master and slave (bytes)
system.iobus.pkt_count_system.bridge.master::system.realview.timer1.pio           16                       # Packet count per connected master and slave (bytes)
system.iobus.pkt_count_system.bridge.master::system.realview.rtc.pio           16                       # Packet count per connected master and slave (bytes)
system.iobus.pkt_count_system.bridge.master::system.realview.uart1_fake.pio           16                       # Packet count per connected master and slave (bytes)
system.iobus.pkt_count_system.bridge.master::system.realview.uart2_fake.pio           16                       # Packet count per connected master and slave (bytes)
system.iobus.pkt_count_system.bridge.master::system.realview.uart3_fake.pio           16                       # Packet count per connected master and slave (bytes)
system.iobus.pkt_count_system.bridge.master::system.realview.sp810_fake.pio           24                       # Packet count per connected master and slave (bytes)
system.iobus.pkt_count_system.bridge.master::system.realview.watchdog_fake.pio           16                       # Packet count per connected master and slave (bytes)
system.iobus.pkt_count_system.bridge.master::system.realview.ide.pio        29548                       # Packet count per connected master and slave (bytes)
system.iobus.pkt_count_system.bridge.master::system.realview.ide-pciconf          210                       # Packet count per connected master and slave (bytes)
system.iobus.pkt_count_system.bridge.master::system.realview.ethernet.pio        44750                       # Packet count per connected master and slave (bytes)
system.iobus.pkt_count_system.bridge.master::system.realview.ethernet-pciconf          164                       # Packet count per connected master and slave (bytes)
system.iobus.pkt_count_system.bridge.master::system.realview.pciconfig.pio           60                       # Packet count per connected master and slave (bytes)
system.iobus.pkt_count_system.bridge.master::total       123190                       # Packet count per connected master and slave (bytes)
system.iobus.pkt_count_system.realview.ide.dma::system.iocache.cpu_side       230998                       # Packet count per connected master and slave (bytes)
system.iobus.pkt_count_system.realview.ide.dma::total       230998                       # Packet count per connected master and slave (bytes)
system.iobus.pkt_count_system.realview.ethernet.dma::system.iocache.cpu_side           80                       # Packet count per connected master and slave (bytes)
system.iobus.pkt_count_system.realview.ethernet.dma::total           80                       # Packet count per connected master and slave (bytes)
system.iobus.pkt_count::total                  354268                       # Packet count per connected master and slave (bytes)
system.iobus.pkt_size_system.bridge.master::system.realview.uart.pio        48328                       # Cumulative packet size per connected master and slave (bytes)
system.iobus.pkt_size_system.bridge.master::system.realview.realview_io.pio           28                       # Cumulative packet size per connected master and slave (bytes)
system.iobus.pkt_size_system.bridge.master::system.realview.timer0.pio           32                       # Cumulative packet size per connected master and slave (bytes)
system.iobus.pkt_size_system.bridge.master::system.realview.timer1.pio           32                       # Cumulative packet size per connected master and slave (bytes)
system.iobus.pkt_size_system.bridge.master::system.realview.rtc.pio           32                       # Cumulative packet size per connected master and slave (bytes)
system.iobus.pkt_size_system.bridge.master::system.realview.uart1_fake.pio           32                       # Cumulative packet size per connected master and slave (bytes)
system.iobus.pkt_size_system.bridge.master::system.realview.uart2_fake.pio           32                       # Cumulative packet size per connected master and slave (bytes)
system.iobus.pkt_size_system.bridge.master::system.realview.uart3_fake.pio           32                       # Cumulative packet size per connected master and slave (bytes)
system.iobus.pkt_size_system.bridge.master::system.realview.sp810_fake.pio           48                       # Cumulative packet size per connected master and slave (bytes)
system.iobus.pkt_size_system.bridge.master::system.realview.watchdog_fake.pio           32                       # Cumulative packet size per connected master and slave (bytes)
system.iobus.pkt_size_system.bridge.master::system.realview.ide.pio        17558                       # Cumulative packet size per connected master and slave (bytes)
system.iobus.pkt_size_system.bridge.master::system.realview.ide-pciconf          263                       # Cumulative packet size per connected master and slave (bytes)
system.iobus.pkt_size_system.bridge.master::system.realview.ethernet.pio        89500                       # Cumulative packet size per connected master and slave (bytes)
system.iobus.pkt_size_system.bridge.master::system.realview.ethernet-pciconf          251                       # Cumulative packet size per connected master and slave (bytes)
system.iobus.pkt_size_system.bridge.master::system.realview.pciconfig.pio          120                       # Cumulative packet size per connected master and slave (bytes)
system.iobus.pkt_size_system.bridge.master::total       156320                       # Cumulative packet size per connected master and slave (bytes)
system.iobus.pkt_size_system.realview.ide.dma::system.iocache.cpu_side      7334424                       # Cumulative packet size per connected master and slave (bytes)
system.iobus.pkt_size_system.realview.ide.dma::total      7334424                       # Cumulative packet size per connected master and slave (bytes)
system.iobus.pkt_size_system.realview.ethernet.dma::system.iocache.cpu_side         2086                       # Cumulative packet size per connected master and slave (bytes)
system.iobus.pkt_size_system.realview.ethernet.dma::total         2086                       # Cumulative packet size per connected master and slave (bytes)
system.iobus.pkt_size::total                  7492830                       # Cumulative packet size per connected master and slave (bytes)
system.iobus.reqLayer0.occupancy             36706000                       # Layer occupancy (ticks)
system.iobus.reqLayer0.utilization                0.0                       # Layer utilization (%)
system.iobus.reqLayer1.occupancy                 9000                       # Layer occupancy (ticks)
system.iobus.reqLayer1.utilization                0.0                       # Layer utilization (%)
system.iobus.reqLayer2.occupancy                 8000                       # Layer occupancy (ticks)
system.iobus.reqLayer2.utilization                0.0                       # Layer utilization (%)
system.iobus.reqLayer3.occupancy                 8000                       # Layer occupancy (ticks)
system.iobus.reqLayer3.utilization                0.0                       # Layer utilization (%)
system.iobus.reqLayer10.occupancy                8000                       # Layer occupancy (ticks)
system.iobus.reqLayer10.utilization               0.0                       # Layer utilization (%)
system.iobus.reqLayer13.occupancy                8000                       # Layer occupancy (ticks)
system.iobus.reqLayer13.utilization               0.0                       # Layer utilization (%)
system.iobus.reqLayer14.occupancy                8000                       # Layer occupancy (ticks)
system.iobus.reqLayer14.utilization               0.0                       # Layer utilization (%)
system.iobus.reqLayer15.occupancy                8000                       # Layer occupancy (ticks)
system.iobus.reqLayer15.utilization               0.0                       # Layer utilization (%)
system.iobus.reqLayer16.occupancy               12000                       # Layer occupancy (ticks)
system.iobus.reqLayer16.utilization               0.0                       # Layer utilization (%)
system.iobus.reqLayer17.occupancy                8000                       # Layer occupancy (ticks)
system.iobus.reqLayer17.utilization               0.0                       # Layer utilization (%)
system.iobus.reqLayer23.occupancy            21947000                       # Layer occupancy (ticks)
system.iobus.reqLayer23.utilization               0.0                       # Layer utilization (%)
system.iobus.reqLayer24.occupancy              142000                       # Layer occupancy (ticks)
system.iobus.reqLayer24.utilization               0.0                       # Layer utilization (%)
system.iobus.reqLayer25.occupancy            32658000                       # Layer occupancy (ticks)
system.iobus.reqLayer25.utilization               0.0                       # Layer utilization (%)
system.iobus.reqLayer26.occupancy              101000                       # Layer occupancy (ticks)
system.iobus.reqLayer26.utilization               0.0                       # Layer utilization (%)
system.iobus.reqLayer27.occupancy           981107027                       # Layer occupancy (ticks)
system.iobus.reqLayer27.utilization               0.0                       # Layer utilization (%)
system.iobus.reqLayer28.occupancy               30000                       # Layer occupancy (ticks)
system.iobus.reqLayer28.utilization               0.0                       # Layer utilization (%)
system.iobus.respLayer0.occupancy            93124000                       # Layer occupancy (ticks)
system.iobus.respLayer0.utilization               0.0                       # Layer utilization (%)
system.iobus.respLayer3.occupancy           179038037                       # Layer occupancy (ticks)
system.iobus.respLayer3.utilization               0.0                       # Layer utilization (%)
system.iobus.respLayer4.occupancy              297000                       # Layer occupancy (ticks)
system.iobus.respLayer4.utilization               0.0                       # Layer utilization (%)
system.cpu_clk_domain.clock                       500                       # Clock period in ticks
system.cpu.dstage2_mmu.stage2_tlb.inst_hits            0                       # ITB inst hits
system.cpu.dstage2_mmu.stage2_tlb.inst_misses            0                       # ITB inst misses
system.cpu.dstage2_mmu.stage2_tlb.read_hits            0                       # DTB read hits
system.cpu.dstage2_mmu.stage2_tlb.read_misses            0                       # DTB read misses
system.cpu.dstage2_mmu.stage2_tlb.write_hits            0                       # DTB write hits
system.cpu.dstage2_mmu.stage2_tlb.write_misses            0                       # DTB write misses
system.cpu.dstage2_mmu.stage2_tlb.flush_tlb            0                       # Number of times complete TLB was flushed
system.cpu.dstage2_mmu.stage2_tlb.flush_tlb_mva            0                       # Number of times TLB was flushed by MVA
system.cpu.dstage2_mmu.stage2_tlb.flush_tlb_mva_asid            0                       # Number of times TLB was flushed by MVA & ASID
system.cpu.dstage2_mmu.stage2_tlb.flush_tlb_asid            0                       # Number of times TLB was flushed by ASID
system.cpu.dstage2_mmu.stage2_tlb.flush_entries            0                       # Number of entries that have been flushed from TLB
system.cpu.dstage2_mmu.stage2_tlb.align_faults            0                       # Number of TLB faults due to alignment restrictions
system.cpu.dstage2_mmu.stage2_tlb.prefetch_faults            0                       # Number of TLB faults due to prefetch
system.cpu.dstage2_mmu.stage2_tlb.domain_faults            0                       # Number of TLB faults due to domain restrictions
system.cpu.dstage2_mmu.stage2_tlb.perms_faults            0                       # Number of TLB faults due to permissions restrictions
system.cpu.dstage2_mmu.stage2_tlb.read_accesses            0                       # DTB read accesses
system.cpu.dstage2_mmu.stage2_tlb.write_accesses            0                       # DTB write accesses
system.cpu.dstage2_mmu.stage2_tlb.inst_accesses            0                       # ITB inst accesses
system.cpu.dstage2_mmu.stage2_tlb.hits              0                       # DTB hits
system.cpu.dstage2_mmu.stage2_tlb.misses            0                       # DTB misses
system.cpu.dstage2_mmu.stage2_tlb.accesses            0                       # DTB accesses
system.cpu.dtb.inst_hits                            0                       # ITB inst hits
system.cpu.dtb.inst_misses                          0                       # ITB inst misses
system.cpu.dtb.read_hits                    158219223                       # DTB read hits
system.cpu.dtb.read_misses                     140465                       # DTB read misses
system.cpu.dtb.write_hits                   143634632                       # DTB write hits
system.cpu.dtb.write_misses                     49220                       # DTB write misses
system.cpu.dtb.flush_tlb                           10                       # Number of times complete TLB was flushed
system.cpu.dtb.flush_tlb_mva                        0                       # Number of times TLB was flushed by MVA
system.cpu.dtb.flush_tlb_mva_asid               38918                       # Number of times TLB was flushed by MVA & ASID
system.cpu.dtb.flush_tlb_asid                    1015                       # Number of times TLB was flushed by ASID
system.cpu.dtb.flush_entries                    71391                       # Number of entries that have been flushed from TLB
system.cpu.dtb.align_faults                         0                       # Number of TLB faults due to alignment restrictions
system.cpu.dtb.prefetch_faults                   7071                       # Number of TLB faults due to prefetch
system.cpu.dtb.domain_faults                        0                       # Number of TLB faults due to domain restrictions
system.cpu.dtb.perms_faults                     18891                       # Number of TLB faults due to permissions restrictions
system.cpu.dtb.read_accesses                158359688                       # DTB read accesses
system.cpu.dtb.write_accesses               143683852                       # DTB write accesses
system.cpu.dtb.inst_accesses                        0                       # ITB inst accesses
system.cpu.dtb.hits                         301853855                       # DTB hits
system.cpu.dtb.misses                          189685                       # DTB misses
system.cpu.dtb.accesses                     302043540                       # DTB accesses
system.cpu.istage2_mmu.stage2_tlb.inst_hits            0                       # ITB inst hits
system.cpu.istage2_mmu.stage2_tlb.inst_misses            0                       # ITB inst misses
system.cpu.istage2_mmu.stage2_tlb.read_hits            0                       # DTB read hits
system.cpu.istage2_mmu.stage2_tlb.read_misses            0                       # DTB read misses
system.cpu.istage2_mmu.stage2_tlb.write_hits            0                       # DTB write hits
system.cpu.istage2_mmu.stage2_tlb.write_misses            0                       # DTB write misses
system.cpu.istage2_mmu.stage2_tlb.flush_tlb            0                       # Number of times complete TLB was flushed
system.cpu.istage2_mmu.stage2_tlb.flush_tlb_mva            0                       # Number of times TLB was flushed by MVA
system.cpu.istage2_mmu.stage2_tlb.flush_tlb_mva_asid            0                       # Number of times TLB was flushed by MVA & ASID
system.cpu.istage2_mmu.stage2_tlb.flush_tlb_asid            0                       # Number of times TLB was flushed by ASID
system.cpu.istage2_mmu.stage2_tlb.flush_entries            0                       # Number of entries that have been flushed from TLB
system.cpu.istage2_mmu.stage2_tlb.align_faults            0                       # Number of TLB faults due to alignment restrictions
system.cpu.istage2_mmu.stage2_tlb.prefetch_faults            0                       # Number of TLB faults due to prefetch
system.cpu.istage2_mmu.stage2_tlb.domain_faults            0                       # Number of TLB faults due to domain restrictions
system.cpu.istage2_mmu.stage2_tlb.perms_faults            0                       # Number of TLB faults due to permissions restrictions
system.cpu.istage2_mmu.stage2_tlb.read_accesses            0                       # DTB read accesses
system.cpu.istage2_mmu.stage2_tlb.write_accesses            0                       # DTB write accesses
system.cpu.istage2_mmu.stage2_tlb.inst_accesses            0                       # ITB inst accesses
system.cpu.istage2_mmu.stage2_tlb.hits              0                       # DTB hits
system.cpu.istage2_mmu.stage2_tlb.misses            0                       # DTB misses
system.cpu.istage2_mmu.stage2_tlb.accesses            0                       # DTB accesses
system.cpu.itb.inst_hits                    841528845                       # ITB inst hits
system.cpu.itb.inst_misses                     119634                       # ITB inst misses
system.cpu.itb.read_hits                            0                       # DTB read hits
system.cpu.itb.read_misses                          0                       # DTB read misses
system.cpu.itb.write_hits                           0                       # DTB write hits
system.cpu.itb.write_misses                         0                       # DTB write misses
system.cpu.itb.flush_tlb                           10                       # Number of times complete TLB was flushed
system.cpu.itb.flush_tlb_mva                        0                       # Number of times TLB was flushed by MVA
system.cpu.itb.flush_tlb_mva_asid               38918                       # Number of times TLB was flushed by MVA & ASID
system.cpu.itb.flush_tlb_asid                    1015                       # Number of times TLB was flushed by ASID
system.cpu.itb.flush_entries                    51154                       # Number of entries that have been flushed from TLB
system.cpu.itb.align_faults                         0                       # Number of TLB faults due to alignment restrictions
system.cpu.itb.prefetch_faults                      0                       # Number of TLB faults due to prefetch
system.cpu.itb.domain_faults                        0                       # Number of TLB faults due to domain restrictions
system.cpu.itb.perms_faults                         0                       # Number of TLB faults due to permissions restrictions
system.cpu.itb.read_accesses                        0                       # DTB read accesses
system.cpu.itb.write_accesses                       0                       # DTB write accesses
system.cpu.itb.inst_accesses                841648479                       # ITB inst accesses
system.cpu.itb.hits                         841528845                       # DTB hits
system.cpu.itb.misses                          119634                       # DTB misses
system.cpu.itb.accesses                     841648479                       # DTB accesses
system.cpu.numCycles                     103562112148                       # number of cpu cycles simulated
system.cpu.numWorkItemsStarted                      0                       # number of work items this cpu started
system.cpu.numWorkItemsCompleted                    0                       # number of work items this cpu completed
system.cpu.committedInsts                   841009423                       # Number of instructions committed
system.cpu.committedOps                     988312418                       # Number of ops (including micro ops) committed
system.cpu.num_int_alu_accesses             908272324                       # Number of integer alu accesses
system.cpu.num_fp_alu_accesses                 899019                       # Number of float alu accesses
system.cpu.num_func_calls                    50313277                       # number of times a function call or return occured
system.cpu.num_conditional_control_insts    127741607                       # number of instructions that are conditional controls
system.cpu.num_int_insts                    908272324                       # number of integer instructions
system.cpu.num_fp_insts                        899019                       # number of float instructions
system.cpu.num_int_register_reads          1317064952                       # number of times the integer registers were read
system.cpu.num_int_register_writes          720072212                       # number of times the integer registers were written
system.cpu.num_fp_register_reads              1450897                       # number of times the floating registers were read
system.cpu.num_fp_register_writes              759632                       # number of times the floating registers were written
system.cpu.num_cc_register_reads            218662872                       # number of times the CC registers were read
system.cpu.num_cc_register_writes           218058310                       # number of times the CC registers were written
system.cpu.num_mem_refs                     301832909                       # number of memory refs
system.cpu.num_load_insts                   158209551                       # Number of load instructions
system.cpu.num_store_insts                  143623358                       # Number of store instructions
system.cpu.num_idle_cycles               100527171614.894058                       # Number of idle cycles
system.cpu.num_busy_cycles               3034940533.105942                       # Number of busy cycles
system.cpu.not_idle_fraction                 0.029306                       # Percentage of non-idle cycles
system.cpu.idle_fraction                     0.970694                       # Percentage of idle cycles
system.cpu.Branches                         187669847                       # Number of branches fetched
system.cpu.op_class::No_OpClass                     1      0.00%      0.00% # Class of executed instruction
system.cpu.op_class::IntAlu                 684692132     69.24%     69.24% # Class of executed instruction
system.cpu.op_class::IntMult                  2140683      0.22%     69.46% # Class of executed instruction
system.cpu.op_class::IntDiv                     96951      0.01%     69.47% # Class of executed instruction
system.cpu.op_class::FloatAdd                       0      0.00%     69.47% # Class of executed instruction
system.cpu.op_class::FloatCmp                       0      0.00%     69.47% # Class of executed instruction
system.cpu.op_class::FloatCvt                       0      0.00%     69.47% # Class of executed instruction
system.cpu.op_class::FloatMult                      0      0.00%     69.47% # Class of executed instruction
system.cpu.op_class::FloatDiv                       0      0.00%     69.47% # Class of executed instruction
system.cpu.op_class::FloatSqrt                      0      0.00%     69.47% # Class of executed instruction
system.cpu.op_class::SimdAdd                        0      0.00%     69.47% # Class of executed instruction
system.cpu.op_class::SimdAddAcc                     0      0.00%     69.47% # Class of executed instruction
system.cpu.op_class::SimdAlu                        0      0.00%     69.47% # Class of executed instruction
system.cpu.op_class::SimdCmp                        0      0.00%     69.47% # Class of executed instruction
system.cpu.op_class::SimdCvt                        0      0.00%     69.47% # Class of executed instruction
system.cpu.op_class::SimdMisc                       0      0.00%     69.47% # Class of executed instruction
system.cpu.op_class::SimdMult                       0      0.00%     69.47% # Class of executed instruction
system.cpu.op_class::SimdMultAcc                    0      0.00%     69.47% # Class of executed instruction
system.cpu.op_class::SimdShift                      0      0.00%     69.47% # Class of executed instruction
system.cpu.op_class::SimdShiftAcc                   0      0.00%     69.47% # Class of executed instruction
system.cpu.op_class::SimdSqrt                       0      0.00%     69.47% # Class of executed instruction
system.cpu.op_class::SimdFloatAdd                   8      0.00%     69.47% # Class of executed instruction
system.cpu.op_class::SimdFloatAlu                   0      0.00%     69.47% # Class of executed instruction
system.cpu.op_class::SimdFloatCmp                  13      0.00%     69.47% # Class of executed instruction
system.cpu.op_class::SimdFloatCvt                  21      0.00%     69.47% # Class of executed instruction
system.cpu.op_class::SimdFloatDiv                   0      0.00%     69.47% # Class of executed instruction
system.cpu.op_class::SimdFloatMisc             112246      0.01%     69.48% # Class of executed instruction
system.cpu.op_class::SimdFloatMult                  0      0.00%     69.48% # Class of executed instruction
system.cpu.op_class::SimdFloatMultAcc               0      0.00%     69.48% # Class of executed instruction
system.cpu.op_class::SimdFloatSqrt                  0      0.00%     69.48% # Class of executed instruction
system.cpu.op_class::MemRead                158209551     16.00%     85.48% # Class of executed instruction
system.cpu.op_class::MemWrite               143623358     14.52%    100.00% # Class of executed instruction
system.cpu.op_class::IprAccess                      0      0.00%    100.00% # Class of executed instruction
system.cpu.op_class::InstPrefetch                   0      0.00%    100.00% # Class of executed instruction
system.cpu.op_class::total                  988874964                       # Class of executed instruction
system.cpu.kern.inst.arm                            0                       # number of arm instructions executed
system.cpu.kern.inst.quiesce                    16062                       # number of quiesce instructions executed
system.cpu.icache.tags.replacements          13492469                       # number of replacements
system.cpu.icache.tags.tagsinuse           511.894753                       # Cycle average of tags in use
system.cpu.icache.tags.total_refs           828035859                       # Total number of references to valid blocks.
system.cpu.icache.tags.sampled_refs          13492981                       # Sample count of references to valid blocks.
system.cpu.icache.tags.avg_refs             61.367896                       # Average number of references to valid blocks.
system.cpu.icache.tags.warmup_cycle       31319075250                       # Cycle when the warmup percentage was hit.
system.cpu.icache.tags.occ_blocks::cpu.inst   511.894753                       # Average occupied blocks per requestor
system.cpu.icache.tags.occ_percent::cpu.inst     0.999794                       # Average percentage of cache occupancy
system.cpu.icache.tags.occ_percent::total     0.999794                       # Average percentage of cache occupancy
[...]
system.cpu.toL2Bus.pkt_size_system.cpu.itb.walker.dma::system.cpu.l2cache.cpu_side      1950336                       # Cumulative packet size per connected master and slave (bytes)
system.cpu.toL2Bus.pkt_size_system.cpu.dtb.walker.dma::system.cpu.l2cache.cpu_side      2556184                       # Cumulative packet size per connected master and slave (bytes)
system.cpu.toL2Bus.pkt_size::total         1904274380                       # Cumulative packet size per connected master and slave (bytes)
system.cpu.toL2Bus.snoops                      465684                       # Total snoops (count)
system.cpu.toL2Bus.snoop_fanout::samples     30748357                       # Request fanout histogram
system.cpu.toL2Bus.snoop_fanout::mean        5.003758                       # Request fanout histogram
system.cpu.toL2Bus.snoop_fanout::stdev       0.061188                       # Request fanout histogram
system.cpu.toL2Bus.snoop_fanout::underflows            0      0.00%      0.00% # Request fanout histogram
system.cpu.toL2Bus.snoop_fanout::0                  0      0.00%      0.00% # Request fanout histogram
system.cpu.toL2Bus.snoop_fanout::1                  0      0.00%      0.00% # Request fanout histogram
system.cpu.toL2Bus.snoop_fanout::2                  0      0.00%      0.00% # Request fanout histogram
system.cpu.toL2Bus.snoop_fanout::3                  0      0.00%      0.00% # Request fanout histogram
system.cpu.toL2Bus.snoop_fanout::4                  0      0.00%      0.00% # Request fanout histogram
system.cpu.toL2Bus.snoop_fanout::5           30632803     99.62%     99.62% # Request fanout histogram
system.cpu.toL2Bus.snoop_fanout::6             115554      0.38%    100.00% # Request fanout histogram
system.cpu.toL2Bus.snoop_fanout::overflows            0      0.00%    100.00% # Request fanout histogram
system.cpu.toL2Bus.snoop_fanout::min_value            5                       # Request fanout histogram
system.cpu.toL2Bus.snoop_fanout::max_value            6                       # Request fanout histogram
system.cpu.toL2Bus.snoop_fanout::total       30748357                       # Request fanout histogram
system.cpu.toL2Bus.reqLayer0.occupancy    23350352499                       # Layer occupancy (ticks)
system.cpu.toL2Bus.reqLayer0.utilization          0.0                       # Layer utilization (%)
system.cpu.toL2Bus.snoopLayer0.occupancy      1018500                       # Layer occupancy (ticks)
system.cpu.toL2Bus.snoopLayer0.utilization          0.0                       # Layer utilization (%)
system.cpu.toL2Bus.respLayer0.occupancy   20304235714                       # Layer occupancy (ticks)
system.cpu.toL2Bus.respLayer0.utilization          0.0                       # Layer utilization (%)
system.cpu.toL2Bus.respLayer1.occupancy   13344056707                       # Layer occupancy (ticks)
system.cpu.toL2Bus.respLayer1.utilization          0.0                       # Layer utilization (%)
system.cpu.toL2Bus.respLayer2.occupancy     358207000                       # Layer occupancy (ticks)
system.cpu.toL2Bus.respLayer2.utilization          0.0                       # Layer utilization (%)
system.cpu.toL2Bus.respLayer3.occupancy     555725500                       # Layer occupancy (ticks)
system.cpu.toL2Bus.respLayer3.utilization          0.0                       # Layer utilization (%)
system.iocache.tags.replacements               115481                       # number of replacements
system.iocache.tags.tagsinuse               10.454792                       # Cycle average of tags in use
system.iocache.tags.total_refs                      3                       # Total number of references to valid blocks.
system.iocache.tags.sampled_refs               115497                       # Sample count of references to valid blocks.
system.iocache.tags.avg_refs                 0.000026                       # Average number of references to valid blocks.
system.iocache.tags.warmup_cycle         13153677258000                       # Cycle when the warmup percentage was hit.
system.iocache.tags.occ_blocks::realview.ethernet     3.509713                       # Average occupied blocks per requestor
system.iocache.tags.occ_blocks::realview.ide     6.945079                       # Average occupied blocks per requestor
system.iocache.tags.occ_percent::realview.ethernet     0.219357                       # Average percentage of cache occupancy
system.iocache.tags.occ_percent::realview.ide     0.434067                       # Average percentage of cache occupancy
system.iocache.tags.occ_percent::total       0.653424                       # Average percentage of cache occupancy
system.iocache.tags.occ_task_id_blocks::1023           16                       # Occupied blocks per task id
system.iocache.tags.age_task_id_blocks_1023::3           16                       # Occupied blocks per task id
system.iocache.tags.occ_task_id_percent::1023            1                       # Percentage of cache occupancy per task id
system.iocache.tags.tag_accesses              1039872                       # Number of tag accesses
system.iocache.tags.data_accesses             1039872                       # Number of data accesses
system.iocache.WriteInvalidateReq_hits::realview.ide       106664                       # number of WriteInvalidateReq hits
system.iocache.WriteInvalidateReq_hits::total       106664                       # number of WriteInvalidateReq hits
system.iocache.ReadReq_misses::realview.ethernet           37                       # number of ReadReq misses
system.iocache.ReadReq_misses::realview.ide         8835                       # number of ReadReq misses
system.iocache.ReadReq_misses::total             8872                       # number of ReadReq misses
system.iocache.WriteReq_misses::realview.ethernet            3                       # number of WriteReq misses
system.iocache.WriteReq_misses::total               3                       # number of WriteReq misses
system.iocache.WriteInvalidateReq_misses::realview.ide            3                       # number of WriteInvalidateReq misses
system.iocache.WriteInvalidateReq_misses::total            3                       # number of WriteInvalidateReq misses
system.iocache.demand_misses::realview.ethernet           40                       # number of demand (read+write) misses
system.iocache.demand_misses::realview.ide         8835                       # number of demand (read+write) misses
system.iocache.demand_misses::total              8875                       # number of demand (read+write) misses
system.iocache.overall_misses::realview.ethernet           40                       # number of overall misses
system.iocache.overall_misses::realview.ide         8835                       # number of overall misses
system.iocache.overall_misses::total             8875                       # number of overall misses
system.iocache.ReadReq_miss_latency::realview.ethernet      5485000                       # number of ReadReq miss cycles
system.iocache.ReadReq_miss_latency::realview.ide   1898661362                       # number of ReadReq miss cycles
system.iocache.ReadReq_miss_latency::total   1904146362                       # number of ReadReq miss cycles
system.iocache.WriteReq_miss_latency::realview.ethernet       339000                       # number of WriteReq miss cycles
system.iocache.WriteReq_miss_latency::total       339000                       # number of WriteReq miss cycles
system.iocache.demand_miss_latency::realview.ethernet      5824000                       # number of demand (read+write) miss cycles
system.iocache.demand_miss_latency::realview.ide   1898661362                       # number of demand (read+write) miss cycles
system.iocache.demand_miss_latency::total   1904485362                       # number of demand (read+write) miss cycles
system.iocache.overall_miss_latency::realview.ethernet      5824000                       # number of overall miss cycles
system.iocache.overall_miss_latency::realview.ide   1898661362                       # number of overall miss cycles
system.iocache.overall_miss_latency::total   1904485362                       # number of overall miss cycles
system.iocache.ReadReq_accesses::realview.ethernet           37                       # number of ReadReq accesses(hits+misses)
system.iocache.ReadReq_accesses::realview.ide         8835                       # number of ReadReq accesses(hits+misses)
system.iocache.ReadReq_accesses::total           8872                       # number of ReadReq accesses(hits+misses)
system.iocache.WriteReq_accesses::realview.ethernet            3                       # number of WriteReq accesses(hits+misses)
system.iocache.WriteReq_accesses::total             3                       # number of WriteReq accesses(hits+misses)
system.iocache.WriteInvalidateReq_accesses::realview.ide       106667                       # number of WriteInvalidateReq accesses(hits+misses)
system.iocache.WriteInvalidateReq_accesses::total       106667                       # number of WriteInvalidateReq accesses(hits+misses)
system.iocache.demand_accesses::realview.ethernet           40                       # number of demand (read+write) accesses
system.iocache.demand_accesses::realview.ide         8835                       # number of demand (read+write) accesses
system.iocache.demand_accesses::total            8875                       # number of demand (read+write) accesses
system.iocache.overall_accesses::realview.ethernet           40                       # number of overall (read+write) accesses
system.iocache.overall_accesses::realview.ide         8835                       # number of overall (read+write) accesses
system.iocache.overall_accesses::total           8875                       # number of overall (read+write) accesses
system.iocache.ReadReq_miss_rate::realview.ethernet            1                       # miss rate for ReadReq accesses
system.iocache.ReadReq_miss_rate::realview.ide            1                       # miss rate for ReadReq accesses
system.iocache.ReadReq_miss_rate::total             1                       # miss rate for ReadReq accesses
system.iocache.WriteReq_miss_rate::realview.ethernet            1                       # miss rate for WriteReq accesses
system.iocache.WriteReq_miss_rate::total            1                       # miss rate for WriteReq accesses
system.iocache.WriteInvalidateReq_miss_rate::realview.ide     0.000028                       # miss rate for WriteInvalidateReq accesses
system.iocache.WriteInvalidateReq_miss_rate::total     0.000028                       # miss rate for WriteInvalidateReq accesses
system.iocache.demand_miss_rate::realview.ethernet            1                       # miss rate for demand accesses
system.iocache.demand_miss_rate::realview.ide            1                       # miss rate for demand accesses
system.iocache.demand_miss_rate::total              1                       # miss rate for demand accesses
system.iocache.overall_miss_rate::realview.ethernet            1                       # miss rate for overall accesses
system.iocache.overall_miss_rate::realview.ide            1                       # miss rate for overall accesses
system.iocache.overall_miss_rate::total             1                       # miss rate for overall accesses
system.iocache.ReadReq_avg_miss_latency::realview.ethernet 148243.243243                       # average ReadReq miss latency
system.iocache.ReadReq_avg_miss_latency::realview.ide 214902.248104                       # average ReadReq miss latency
system.iocache.ReadReq_avg_miss_latency::total 214624.251803                       # average ReadReq miss latency
system.iocache.WriteReq_avg_miss_latency::realview.ethernet       113000                       # average WriteReq miss latency
system.iocache.WriteReq_avg_miss_latency::total       113000                       # average WriteReq miss latency
system.iocache.demand_avg_miss_latency::realview.ethernet       145600                       # average overall miss latency
system.iocache.demand_avg_miss_latency::realview.ide 214902.248104                       # average overall miss latency
system.iocache.demand_avg_miss_latency::total 214589.899944                       # average overall miss latency
system.iocache.overall_avg_miss_latency::realview.ethernet       145600                       # average overall miss latency
system.iocache.overall_avg_miss_latency::realview.ide 214902.248104                       # average overall miss latency
system.iocache.overall_avg_miss_latency::total 214589.899944                       # average overall miss latency
system.iocache.blocked_cycles::no_mshrs         51753                       # number of cycles access was blocked
system.iocache.blocked_cycles::no_targets            0                       # number of cycles access was blocked
system.iocache.blocked::no_mshrs                 5490                       # number of cycles access was blocked
system.iocache.blocked::no_targets                  0                       # number of cycles access was blocked
system.iocache.avg_blocked_cycles::no_mshrs     9.426776                       # average number of cycles each access was blocked
system.iocache.avg_blocked_cycles::no_targets          nan                       # average number of cycles each access was blocked
system.iocache.fast_writes                     106664                       # number of fast writes performed
system.iocache.cache_copies                         0                       # number of cache copies performed
system.iocache.ReadReq_mshr_misses::realview.ethernet           37                       # number of ReadReq MSHR misses
system.iocache.ReadReq_mshr_misses::realview.ide         8835                       # number of ReadReq MSHR misses
system.iocache.ReadReq_mshr_misses::total         8872                       # number of ReadReq MSHR misses
system.iocache.WriteReq_mshr_misses::realview.ethernet            3                       # number of WriteReq MSHR misses
system.iocache.WriteReq_mshr_misses::total            3                       # number of WriteReq MSHR misses
system.iocache.demand_mshr_misses::realview.ethernet           40                       # number of demand (read+write) MSHR misses
system.iocache.demand_mshr_misses::realview.ide         8835                       # number of demand (read+write) MSHR misses
system.iocache.demand_mshr_misses::total         8875                       # number of demand (read+write) MSHR misses
system.iocache.overall_mshr_misses::realview.ethernet           40                       # number of overall MSHR misses
system.iocache.overall_mshr_misses::realview.ide         8835                       # number of overall MSHR misses
system.iocache.overall_mshr_misses::total         8875                       # number of overall MSHR misses
system.iocache.ReadReq_mshr_miss_latency::realview.ethernet      3561000                       # number of ReadReq MSHR miss cycles
system.iocache.ReadReq_mshr_miss_latency::realview.ide   1439157862                       # number of ReadReq MSHR miss cycles
system.iocache.ReadReq_mshr_miss_latency::total   1442718862                       # number of ReadReq MSHR miss cycles
system.iocache.WriteReq_mshr_miss_latency::realview.ethernet       183000                       # number of WriteReq MSHR miss cycles
system.iocache.WriteReq_mshr_miss_latency::total       183000                       # number of WriteReq MSHR miss cycles
system.iocache.WriteInvalidateReq_mshr_miss_latency::realview.ide   6525754202                       # number of WriteInvalidateReq MSHR miss cycles
system.iocache.WriteInvalidateReq_mshr_miss_latency::total   6525754202                       # number of WriteInvalidateReq MSHR miss cycles
system.iocache.demand_mshr_miss_latency::realview.ethernet      3744000                       # number of demand (read+write) MSHR miss cycles
system.iocache.demand_mshr_miss_latency::realview.ide   1439157862                       # number of demand (read+write) MSHR miss cycles
system.iocache.demand_mshr_miss_latency::total   1442901862                       # number of demand (read+write) MSHR miss cycles
system.iocache.overall_mshr_miss_latency::realview.ethernet      3744000                       # number of overall MSHR miss cycles
system.iocache.overall_mshr_miss_latency::realview.ide   1439157862                       # number of overall MSHR miss cycles
system.iocache.overall_mshr_miss_latency::total   1442901862                       # number of overall MSHR miss cycles
system.iocache.ReadReq_mshr_miss_rate::realview.ethernet            1                       # mshr miss rate for ReadReq accesses
system.iocache.ReadReq_mshr_miss_rate::realview.ide            1                       # mshr miss rate for ReadReq accesses
system.iocache.ReadReq_mshr_miss_rate::total            1                       # mshr miss rate for ReadReq accesses
system.iocache.WriteReq_mshr_miss_rate::realview.ethernet            1                       # mshr miss rate for WriteReq accesses
system.iocache.WriteReq_mshr_miss_rate::total            1                       # mshr miss rate for WriteReq accesses
system.iocache.demand_mshr_miss_rate::realview.ethernet            1                       # mshr miss rate for demand accesses
system.iocache.demand_mshr_miss_rate::realview.ide            1                       # mshr miss rate for demand accesses
system.iocache.demand_mshr_miss_rate::total            1                       # mshr miss rate for demand accesses
system.iocache.overall_mshr_miss_rate::realview.ethernet            1                       # mshr miss rate for overall accesses
system.iocache.overall_mshr_miss_rate::realview.ide            1                       # mshr miss rate for overall accesses
system.iocache.overall_mshr_miss_rate::total            1                       # mshr miss rate for overall accesses
system.iocache.ReadReq_avg_mshr_miss_latency::realview.ethernet 96243.243243                       # average ReadReq mshr miss latency
system.iocache.ReadReq_avg_mshr_miss_latency::realview.ide 162892.797057                       # average ReadReq mshr miss latency
system.iocache.ReadReq_avg_mshr_miss_latency::total 162614.840171                       # average ReadReq mshr miss latency
system.iocache.WriteReq_avg_mshr_miss_latency::realview.ethernet        61000                       # average WriteReq mshr miss latency
system.iocache.WriteReq_avg_mshr_miss_latency::total        61000                       # average WriteReq mshr miss latency
system.iocache.WriteInvalidateReq_avg_mshr_miss_latency::realview.ide          inf                       # average WriteInvalidateReq mshr miss latency
system.iocache.WriteInvalidateReq_avg_mshr_miss_latency::total          inf                       # average WriteInvalidateReq mshr miss latency
system.iocache.demand_avg_mshr_miss_latency::realview.ethernet        93600                       # average overall mshr miss latency
system.iocache.demand_avg_mshr_miss_latency::realview.ide 162892.797057                       # average overall mshr miss latency
system.iocache.demand_avg_mshr_miss_latency::total 162580.491493                       # average overall mshr miss latency
system.iocache.overall_avg_mshr_miss_latency::realview.ethernet        93600                       # average overall mshr miss latency
system.iocache.overall_avg_mshr_miss_latency::realview.ide 162892.797057                       # average overall mshr miss latency
system.iocache.overall_avg_mshr_miss_latency::total 162580.491493                       # average overall mshr miss latency
system.iocache.no_allocate_misses                   0                       # Number of misses that were no-allocate

---------- End Simulation Statistics   ----------
