gem5 Simulator System.  http://gem5.org
gem5 is copyrighted software; use the --copyright option for details.

gem5 compiled Aug 13 2015 19:22:33
gem5 started Aug 13 2015 20:16:16
gem5 executing on artery
command line: build/ALPHA_MOESI_CMP_directory/gem5.opt -d build/ALPHA_MOESI_CMP_directory/tests/opt/quick/se/50.memtest/alpha/linux/memtest-ruby-MOESI_CMP_directory -re /home/joel/research/gem5/gem5/tests/run.py build/ALPHA_MOESI_CMP_directory/tests/opt/quick/se/50.memtest/alpha/linux/memtest-ruby-MOESI_CMP_directory

Global frequency set at 1000000000 ticks per second
info: Entering event queue @ 0.  Starting simulation...
Exiting @ tick 7477743 because maximum number of loads reached
