gem5 Simulator System.  http://gem5.org
gem5 is copyrighted software; use the --copyright option for details.

gem5 compiled Jan 21 2016 14:06:59
gem5 started Jan 21 2016 14:07:35
gem5 executing on zizzer, pid 50082
command line: build/ALPHA_MOESI_CMP_directory/gem5.opt -d build/ALPHA_MOESI_CMP_directory/tests/opt/quick/se/50.memtest/alpha/linux/memtest-ruby-MOESI_CMP_directory -re /z/atgutier/gem5/gem5-commit/tests/run.py build/ALPHA_MOESI_CMP_directory/tests/opt/quick/se/50.memtest/alpha/linux/memtest-ruby-MOESI_CMP_directory

Global frequency set at 1000000000 ticks per second
info: Entering event queue @ 0.  Starting simulation...
Exiting @ tick 7436579 because maximum number of loads reached
