gem5 Simulator System.  http://gem5.org
gem5 is copyrighted software; use the --copyright option for details.

gem5 compiled Jan 22 2014 16:27:55
gem5 started Jan 22 2014 17:48:27
gem5 executing on u200540-lin
command line: build/ALPHA/gem5.opt -d build/ALPHA/tests/opt/long/se/30.eon/alpha/tru64/inorder-timing -re tests/run.py build/ALPHA/tests/opt/long/se/30.eon/alpha/tru64/inorder-timing
Global frequency set at 1000000000000 ticks per second
info: Entering event queue @ 0.  Starting simulation...
info: Increasing stack size by one page.
Eon, Version 1.1
info: Increasing stack size by one page.
OO-style eon Time= 0.133333
Exiting @ tick 139926186500 because target called exit()
