gem5 Simulator System.  http://gem5.org
gem5 is copyrighted software; use the --copyright option for details.

gem5 compiled Jan 17 2016 20:30:24
gem5 started Jan 17 2016 20:30:38
gem5 executing on zizzer, pid 47389
command line: build/SPARC/gem5.opt -d build/SPARC/tests/opt/long/fs/80.solaris-boot/sparc/solaris/t1000-simple-atomic -re /z/stever/hg/gem5/tests/run.py build/SPARC/tests/opt/long/fs/80.solaris-boot/sparc/solaris/t1000-simple-atomic

Global frequency set at 2000000000 ticks per second
info: No kernel set for full system simulation. Assuming you know what you're doing
      0: system.t1000.htod: Real-time clock set to Thu Jan  1 00:00:00 2009

      0: system.t1000.htod: Real-time clock set to 1230768000
info: Entering event queue @ 0.  Starting simulation...
info: Ignoring write to SPARC ERROR regsiter
info: Ignoring write to SPARC ERROR regsiter
Exiting @ tick 4467555024 because m5_exit instruction encountered
