gem5 Simulator System.  http://gem5.org
gem5 is copyrighted software; use the --copyright option for details.

gem5 compiled Feb 11 2012 13:08:33
gem5 started Feb 11 2012 14:02:46
gem5 executing on zizzer
command line: build/SPARC/gem5.fast -d build/SPARC/tests/fast/long/fs/80.solaris-boot/sparc/solaris/t1000-simple-atomic -re tests/run.py build/SPARC/tests/fast/long/fs/80.solaris-boot/sparc/solaris/t1000-simple-atomic
Global frequency set at 2000000000 ticks per second
info: No kernel set for full system simulation. Assuming you know what you're doing...
info: Entering event queue @ 0.  Starting simulation...
info: Ignoring write to SPARC ERROR regsiter
info: Ignoring write to SPARC ERROR regsiter
Exiting @ tick 2233777512 because m5_exit instruction encountered
