
---------- Begin Simulation Statistics ----------
sim_seconds                                  0.000355                       # Number of seconds simulated
sim_ticks                                   354914000                       # Number of ticks simulated
final_tick                               2261635360000                       # Number of ticks from beginning of simulation (restored from checkpoints and never reset)
sim_freq                                 1000000000000                       # Frequency of simulated ticks
host_inst_rate                               46885613                       # Simulator instruction rate (inst/s)
host_op_rate                                 46884166                       # Simulator op (including micro ops) rate (op/s)
host_tick_rate                              141101849                       # Simulator tick rate (ticks/s)
host_mem_usage                                 757148                       # Number of bytes of host memory used
host_seconds                                     2.52                       # Real time elapsed on the host
sim_insts                                   117924513                       # Number of instructions simulated
sim_ops                                     117924513                       # Number of ops (including micro ops) simulated
system.voltage_domain.voltage                       1                       # Voltage in Volts
system.clk_domain.clock                          1000                       # Clock period in ticks
system.mem_ctrls0.bytes_read::switch_cpus0.inst        81664                       # Number of bytes read from this memory
system.mem_ctrls0.bytes_read::switch_cpus0.data        25344                       # Number of bytes read from this memory
system.mem_ctrls0.bytes_read::switch_cpus1.inst        23936                       # Number of bytes read from this memory
system.mem_ctrls0.bytes_read::switch_cpus1.data        10240                       # Number of bytes read from this memory
system.mem_ctrls0.bytes_read::switch_cpus3.inst       106752                       # Number of bytes read from this memory
system.mem_ctrls0.bytes_read::switch_cpus3.data        52480                       # Number of bytes read from this memory
system.mem_ctrls0.bytes_read::total            300416                       # Number of bytes read from this memory
system.mem_ctrls0.bytes_inst_read::switch_cpus0.inst        81664                       # Number of instructions bytes read from this memory
system.mem_ctrls0.bytes_inst_read::switch_cpus1.inst        23936                       # Number of instructions bytes read from this memory
system.mem_ctrls0.bytes_inst_read::switch_cpus3.inst       106752                       # Number of instructions bytes read from this memory
system.mem_ctrls0.bytes_inst_read::total       212352                       # Number of instructions bytes read from this memory
system.mem_ctrls0.bytes_written::writebacks        19520                       # Number of bytes written to this memory
system.mem_ctrls0.bytes_written::total          19520                       # Number of bytes written to this memory
system.mem_ctrls0.num_reads::switch_cpus0.inst         1276                       # Number of read requests responded to by this memory
system.mem_ctrls0.num_reads::switch_cpus0.data          396                       # Number of read requests responded to by this memory
system.mem_ctrls0.num_reads::switch_cpus1.inst          374                       # Number of read requests responded to by this memory
system.mem_ctrls0.num_reads::switch_cpus1.data          160                       # Number of read requests responded to by this memory
system.mem_ctrls0.num_reads::switch_cpus3.inst         1668                       # Number of read requests responded to by this memory
system.mem_ctrls0.num_reads::switch_cpus3.data          820                       # Number of read requests responded to by this memory
system.mem_ctrls0.num_reads::total               4694                       # Number of read requests responded to by this memory
system.mem_ctrls0.num_writes::writebacks          305                       # Number of write requests responded to by this memory
system.mem_ctrls0.num_writes::total               305                       # Number of write requests responded to by this memory
system.mem_ctrls0.bw_read::switch_cpus0.inst    230095178                       # Total read bandwidth from this memory (bytes/s)
system.mem_ctrls0.bw_read::switch_cpus0.data     71408848                       # Total read bandwidth from this memory (bytes/s)
system.mem_ctrls0.bw_read::switch_cpus1.inst     67441690                       # Total read bandwidth from this memory (bytes/s)
system.mem_ctrls0.bw_read::switch_cpus1.data     28852060                       # Total read bandwidth from this memory (bytes/s)
system.mem_ctrls0.bw_read::switch_cpus3.inst    300782725                       # Total read bandwidth from this memory (bytes/s)
system.mem_ctrls0.bw_read::switch_cpus3.data    147866807                       # Total read bandwidth from this memory (bytes/s)
system.mem_ctrls0.bw_read::total            846447308                       # Total read bandwidth from this memory (bytes/s)
system.mem_ctrls0.bw_inst_read::switch_cpus0.inst    230095178                       # Instruction read bandwidth from this memory (bytes/s)
system.mem_ctrls0.bw_inst_read::switch_cpus1.inst     67441690                       # Instruction read bandwidth from this memory (bytes/s)
system.mem_ctrls0.bw_inst_read::switch_cpus3.inst    300782725                       # Instruction read bandwidth from this memory (bytes/s)
system.mem_ctrls0.bw_inst_read::total       598319593                       # Instruction read bandwidth from this memory (bytes/s)
system.mem_ctrls0.bw_write::writebacks       54999239                       # Write bandwidth from this memory (bytes/s)
system.mem_ctrls0.bw_write::total            54999239                       # Write bandwidth from this memory (bytes/s)
system.mem_ctrls0.bw_total::writebacks       54999239                       # Total bandwidth to/from this memory (bytes/s)
system.mem_ctrls0.bw_total::switch_cpus0.inst    230095178                       # Total bandwidth to/from this memory (bytes/s)
system.mem_ctrls0.bw_total::switch_cpus0.data     71408848                       # Total bandwidth to/from this memory (bytes/s)
system.mem_ctrls0.bw_total::switch_cpus1.inst     67441690                       # Total bandwidth to/from this memory (bytes/s)
system.mem_ctrls0.bw_total::switch_cpus1.data     28852060                       # Total bandwidth to/from this memory (bytes/s)
system.mem_ctrls0.bw_total::switch_cpus3.inst    300782725                       # Total bandwidth to/from this memory (bytes/s)
system.mem_ctrls0.bw_total::switch_cpus3.data    147866807                       # Total bandwidth to/from this memory (bytes/s)
system.mem_ctrls0.bw_total::total           901446548                       # Total bandwidth to/from this memory (bytes/s)
system.mem_ctrls0.readReqs                          0                       # Number of read requests accepted
system.mem_ctrls0.writeReqs                         0                       # Number of write requests accepted
system.mem_ctrls0.readBursts                        0                       # Number of DRAM read bursts, including those serviced by the write queue
system.mem_ctrls0.writeBursts                       0                       # Number of DRAM write bursts, including those merged in the write queue
system.mem_ctrls0.bytesReadDRAM                     0                       # Total number of bytes read from DRAM
system.mem_ctrls0.bytesReadWrQ                      0                       # Total number of bytes read from write queue
system.mem_ctrls0.bytesWritten                      0                       # Total number of bytes written to DRAM
system.mem_ctrls0.bytesReadSys                      0                       # Total read bytes from the system interface side
system.mem_ctrls0.bytesWrittenSys                   0                       # Total written bytes from the system interface side
system.mem_ctrls0.servicedByWrQ                     0                       # Number of DRAM read bursts serviced by the write queue
system.mem_ctrls0.mergedWrBursts                    0                       # Number of DRAM write bursts merged with an existing one
system.mem_ctrls0.neitherReadNorWriteReqs            0                       # Number of requests that are neither read nor write
system.mem_ctrls0.perBankRdBursts::0                0                       # Per bank write bursts
system.mem_ctrls0.perBankRdBursts::1                0                       # Per bank write bursts
system.mem_ctrls0.perBankRdBursts::2                0                       # Per bank write bursts
system.mem_ctrls0.perBankRdBursts::3                0                       # Per bank write bursts
system.mem_ctrls0.perBankRdBursts::4                0                       # Per bank write bursts
system.mem_ctrls0.perBankRdBursts::5                0                       # Per bank write bursts
system.mem_ctrls0.perBankRdBursts::6                0                       # Per bank write bursts
system.mem_ctrls0.perBankRdBursts::7                0                       # Per bank write bursts
system.mem_ctrls0.perBankRdBursts::8                0                       # Per bank write bursts
system.mem_ctrls0.perBankRdBursts::9                0                       # Per bank write bursts
system.mem_ctrls0.perBankRdBursts::10               0                       # Per bank write bursts
system.mem_ctrls0.perBankRdBursts::11               0                       # Per bank write bursts
system.mem_ctrls0.perBankRdBursts::12               0                       # Per bank write bursts
system.mem_ctrls0.perBankRdBursts::13               0                       # Per bank write bursts
system.mem_ctrls0.perBankRdBursts::14               0                       # Per bank write bursts
system.mem_ctrls0.perBankRdBursts::15               0                       # Per bank write bursts
system.mem_ctrls0.perBankWrBursts::0                0                       # Per bank write bursts
system.mem_ctrls0.perBankWrBursts::1                0                       # Per bank write bursts
system.mem_ctrls0.perBankWrBursts::2                0                       # Per bank write bursts
system.mem_ctrls0.perBankWrBursts::3                0                       # Per bank write bursts
system.mem_ctrls0.perBankWrBursts::4                0                       # Per bank write bursts
system.mem_ctrls0.perBankWrBursts::5                0                       # Per bank write bursts
system.mem_ctrls0.perBankWrBursts::6                0                       # Per bank write bursts
system.mem_ctrls0.perBankWrBursts::7                0                       # Per bank write bursts
system.mem_ctrls0.perBankWrBursts::8                0                       # Per bank write bursts
system.mem_ctrls0.perBankWrBursts::9                0                       # Per bank write bursts
system.mem_ctrls0.perBankWrBursts::10               0                       # Per bank write bursts
system.mem_ctrls0.perBankWrBursts::11               0                       # Per bank write bursts
system.mem_ctrls0.perBankWrBursts::12               0                       # Per bank write bursts
system.mem_ctrls0.perBankWrBursts::13               0                       # Per bank write bursts
system.mem_ctrls0.perBankWrBursts::14               0                       # Per bank write bursts
system.mem_ctrls0.perBankWrBursts::15               0                       # Per bank write bursts
system.mem_ctrls0.numRdRetry                        0                       # Number of times read queue was full causing retry
system.mem_ctrls0.numWrRetry                        0                       # Number of times write queue was full causing retry
system.mem_ctrls0.totGap                            0                       # Total gap between requests
system.mem_ctrls0.readPktSize::0                    0                       # Read request sizes (log2)
system.mem_ctrls0.readPktSize::1                    0                       # Read request sizes (log2)
system.mem_ctrls0.readPktSize::2                    0                       # Read request sizes (log2)
system.mem_ctrls0.readPktSize::3                    0                       # Read request sizes (log2)
system.mem_ctrls0.readPktSize::4                    0                       # Read request sizes (log2)
system.mem_ctrls0.readPktSize::5                    0                       # Read request sizes (log2)
system.mem_ctrls0.readPktSize::6                    0                       # Read request sizes (log2)
system.mem_ctrls0.writePktSize::0                   0                       # Write request sizes (log2)
system.mem_ctrls0.writePktSize::1                   0                       # Write request sizes (log2)
system.mem_ctrls0.writePktSize::2                   0                       # Write request sizes (log2)
system.mem_ctrls0.writePktSize::3                   0                       # Write request sizes (log2)
system.mem_ctrls0.writePktSize::4                   0                       # Write request sizes (log2)
system.mem_ctrls0.writePktSize::5                   0                       # Write request sizes (log2)
system.mem_ctrls0.writePktSize::6                   0                       # Write request sizes (log2)
system.mem_ctrls0.rdQLenPdf::0                      0                       # What read queue length does an incoming req see
system.mem_ctrls0.rdQLenPdf::1                      0                       # What read queue length does an incoming req see
system.mem_ctrls0.rdQLenPdf::2                      0                       # What read queue length does an incoming req see
system.mem_ctrls0.rdQLenPdf::3                      0                       # What read queue length does an incoming req see
system.mem_ctrls0.rdQLenPdf::4                      0                       # What read queue length does an incoming req see
system.mem_ctrls0.rdQLenPdf::5                      0                       # What read queue length does an incoming req see
system.mem_ctrls0.rdQLenPdf::6                      0                       # What read queue length does an incoming req see
system.mem_ctrls0.rdQLenPdf::7                      0                       # What read queue length does an incoming req see
system.mem_ctrls0.rdQLenPdf::8                      0                       # What read queue length does an incoming req see
system.mem_ctrls0.rdQLenPdf::9                      0                       # What read queue length does an incoming req see
system.mem_ctrls0.rdQLenPdf::10                     0                       # What read queue length does an incoming req see
system.mem_ctrls0.rdQLenPdf::11                     0                       # What read queue length does an incoming req see
system.mem_ctrls0.rdQLenPdf::12                     0                       # What read queue length does an incoming req see
system.mem_ctrls0.rdQLenPdf::13                     0                       # What read queue length does an incoming req see
system.mem_ctrls0.rdQLenPdf::14                     0                       # What read queue length does an incoming req see
system.mem_ctrls0.rdQLenPdf::15                     0                       # What read queue length does an incoming req see
system.mem_ctrls0.rdQLenPdf::16                     0                       # What read queue length does an incoming req see
system.mem_ctrls0.rdQLenPdf::17                     0                       # What read queue length does an incoming req see
system.mem_ctrls0.rdQLenPdf::18                     0                       # What read queue length does an incoming req see
system.mem_ctrls0.rdQLenPdf::19                     0                       # What read queue length does an incoming req see
system.mem_ctrls0.rdQLenPdf::20                     0                       # What read queue length does an incoming req see
system.mem_ctrls0.rdQLenPdf::21                     0                       # What read queue length does an incoming req see
system.mem_ctrls0.rdQLenPdf::22                     0                       # What read queue length does an incoming req see
system.mem_ctrls0.rdQLenPdf::23                     0                       # What read queue length does an incoming req see
system.mem_ctrls0.rdQLenPdf::24                     0                       # What read queue length does an incoming req see
system.mem_ctrls0.rdQLenPdf::25                     0                       # What read queue length does an incoming req see
system.mem_ctrls0.rdQLenPdf::26                     0                       # What read queue length does an incoming req see
system.mem_ctrls0.rdQLenPdf::27                     0                       # What read queue length does an incoming req see
system.mem_ctrls0.rdQLenPdf::28                     0                       # What read queue length does an incoming req see
system.mem_ctrls0.rdQLenPdf::29                     0                       # What read queue length does an incoming req see
system.mem_ctrls0.rdQLenPdf::30                     0                       # What read queue length does an incoming req see
system.mem_ctrls0.rdQLenPdf::31                     0                       # What read queue length does an incoming req see
system.mem_ctrls0.wrQLenPdf::0                      0                       # What write queue length does an incoming req see
system.mem_ctrls0.wrQLenPdf::1                      0                       # What write queue length does an incoming req see
system.mem_ctrls0.wrQLenPdf::2                      0                       # What write queue length does an incoming req see
system.mem_ctrls0.wrQLenPdf::3                      0                       # What write queue length does an incoming req see
system.mem_ctrls0.wrQLenPdf::4                      0                       # What write queue length does an incoming req see
system.mem_ctrls0.wrQLenPdf::5                      0                       # What write queue length does an incoming req see
system.mem_ctrls0.wrQLenPdf::6                      0                       # What write queue length does an incoming req see
system.mem_ctrls0.wrQLenPdf::7                      0                       # What write queue length does an incoming req see
system.mem_ctrls0.wrQLenPdf::8                      0                       # What write queue length does an incoming req see
system.mem_ctrls0.wrQLenPdf::9                      0                       # What write queue length does an incoming req see
system.mem_ctrls0.wrQLenPdf::10                     0                       # What write queue length does an incoming req see
system.mem_ctrls0.wrQLenPdf::11                     0                       # What write queue length does an incoming req see
system.mem_ctrls0.wrQLenPdf::12                     0                       # What write queue length does an incoming req see
system.mem_ctrls0.wrQLenPdf::13                     0                       # What write queue length does an incoming req see
system.mem_ctrls0.wrQLenPdf::14                     0                       # What write queue length does an incoming req see
system.mem_ctrls0.wrQLenPdf::15                     0                       # What write queue length does an incoming req see
system.mem_ctrls0.wrQLenPdf::16                     0                       # What write queue length does an incoming req see
system.mem_ctrls0.wrQLenPdf::17                     0                       # What write queue length does an incoming req see
system.mem_ctrls0.wrQLenPdf::18                     0                       # What write queue length does an incoming req see
system.mem_ctrls0.wrQLenPdf::19                     0                       # What write queue length does an incoming req see
system.mem_ctrls0.wrQLenPdf::20                     0                       # What write queue length does an incoming req see
system.mem_ctrls0.wrQLenPdf::21                     0                       # What write queue length does an incoming req see
system.mem_ctrls0.wrQLenPdf::22                     0                       # What write queue length does an incoming req see
system.mem_ctrls0.wrQLenPdf::23                     0                       # What write queue length does an incoming req see
system.mem_ctrls0.wrQLenPdf::24                     0                       # What write queue length does an incoming req see
system.mem_ctrls0.wrQLenPdf::25                     0                       # What write queue length does an incoming req see
system.mem_ctrls0.wrQLenPdf::26                     0                       # What write queue length does an incoming req see
system.mem_ctrls0.wrQLenPdf::27                     0                       # What write queue length does an incoming req see
system.mem_ctrls0.wrQLenPdf::28                     0                       # What write queue length does an incoming req see
system.mem_ctrls0.wrQLenPdf::29                     0                       # What write queue length does an incoming req see
system.mem_ctrls0.wrQLenPdf::30                     0                       # What write queue length does an incoming req see
system.mem_ctrls0.wrQLenPdf::31                     0                       # What write queue length does an incoming req see
system.mem_ctrls0.wrQLenPdf::32                     0                       # What write queue length does an incoming req see
system.mem_ctrls0.wrQLenPdf::33                     0                       # What write queue length does an incoming req see
system.mem_ctrls0.wrQLenPdf::34                     0                       # What write queue length does an incoming req see
system.mem_ctrls0.wrQLenPdf::35                     0                       # What write queue length does an incoming req see
system.mem_ctrls0.wrQLenPdf::36                     0                       # What write queue length does an incoming req see
system.mem_ctrls0.wrQLenPdf::37                     0                       # What write queue length does an incoming req see
system.mem_ctrls0.wrQLenPdf::38                     0                       # What write queue length does an incoming req see
system.mem_ctrls0.wrQLenPdf::39                     0                       # What write queue length does an incoming req see
system.mem_ctrls0.wrQLenPdf::40                     0                       # What write queue length does an incoming req see
system.mem_ctrls0.wrQLenPdf::41                     0                       # What write queue length does an incoming req see
system.mem_ctrls0.wrQLenPdf::42                     0                       # What write queue length does an incoming req see
system.mem_ctrls0.wrQLenPdf::43                     0                       # What write queue length does an incoming req see
system.mem_ctrls0.wrQLenPdf::44                     0                       # What write queue length does an incoming req see
system.mem_ctrls0.wrQLenPdf::45                     0                       # What write queue length does an incoming req see
system.mem_ctrls0.wrQLenPdf::46                     0                       # What write queue length does an incoming req see
system.mem_ctrls0.wrQLenPdf::47                     0                       # What write queue length does an incoming req see
system.mem_ctrls0.wrQLenPdf::48                     0                       # What write queue length does an incoming req see
system.mem_ctrls0.wrQLenPdf::49                     0                       # What write queue length does an incoming req see
system.mem_ctrls0.wrQLenPdf::50                     0                       # What write queue length does an incoming req see
system.mem_ctrls0.wrQLenPdf::51                     0                       # What write queue length does an incoming req see
system.mem_ctrls0.wrQLenPdf::52                     0                       # What write queue length does an incoming req see
system.mem_ctrls0.wrQLenPdf::53                     0                       # What write queue length does an incoming req see
system.mem_ctrls0.wrQLenPdf::54                     0                       # What write queue length does an incoming req see
system.mem_ctrls0.wrQLenPdf::55                     0                       # What write queue length does an incoming req see
system.mem_ctrls0.wrQLenPdf::56                     0                       # What write queue length does an incoming req see
system.mem_ctrls0.wrQLenPdf::57                     0                       # What write queue length does an incoming req see
system.mem_ctrls0.wrQLenPdf::58                     0                       # What write queue length does an incoming req see
system.mem_ctrls0.wrQLenPdf::59                     0                       # What write queue length does an incoming req see
system.mem_ctrls0.wrQLenPdf::60                     0                       # What write queue length does an incoming req see
system.mem_ctrls0.wrQLenPdf::61                     0                       # What write queue length does an incoming req see
system.mem_ctrls0.wrQLenPdf::62                     0                       # What write queue length does an incoming req see
system.mem_ctrls0.wrQLenPdf::63                     0                       # What write queue length does an incoming req see
system.mem_ctrls0.totQLat                           0                       # Total ticks spent queuing
system.mem_ctrls0.totMemAccLat                      0                       # Total ticks spent from burst creation until serviced by the DRAM
system.mem_ctrls0.totBusLat                         0                       # Total ticks spent in databus transfers
system.mem_ctrls0.avgQLat                         nan                       # Average queueing delay per DRAM burst
system.mem_ctrls0.avgBusLat                       nan                       # Average bus latency per DRAM burst
system.mem_ctrls0.avgMemAccLat                    nan                       # Average memory access latency per DRAM burst
system.mem_ctrls0.avgRdBW                        0.00                       # Average DRAM read bandwidth in MiByte/s
system.mem_ctrls0.avgWrBW                        0.00                       # Average achieved write bandwidth in MiByte/s
system.mem_ctrls0.avgRdBWSys                     0.00                       # Average system read bandwidth in MiByte/s
system.mem_ctrls0.avgWrBWSys                     0.00                       # Average system write bandwidth in MiByte/s
system.mem_ctrls0.peakBW                     12800.00                       # Theoretical peak bandwidth in MiByte/s
system.mem_ctrls0.busUtil                        0.00                       # Data bus utilization in percentage
system.mem_ctrls0.busUtilRead                    0.00                       # Data bus utilization in percentage for reads
system.mem_ctrls0.busUtilWrite                   0.00                       # Data bus utilization in percentage for writes
system.mem_ctrls0.avgRdQLen                      0.00                       # Average read queue length when enqueuing
system.mem_ctrls0.avgWrQLen                      0.00                       # Average write queue length when enqueuing
system.mem_ctrls0.readRowHits                       0                       # Number of row buffer hits during reads
system.mem_ctrls0.writeRowHits                      0                       # Number of row buffer hits during writes
system.mem_ctrls0.readRowHitRate                  nan                       # Row buffer hit rate for reads
system.mem_ctrls0.writeRowHitRate                 nan                       # Row buffer hit rate for writes
system.mem_ctrls0.avgGap                          nan                       # Average gap between requests
system.mem_ctrls0.pageHitRate                     nan                       # Row buffer hit rate, read and write combined
system.mem_ctrls0_0.actEnergy                       0                       # Energy for activate commands per rank (pJ)
system.mem_ctrls0_0.preEnergy                       0                       # Energy for precharge commands per rank (pJ)
system.mem_ctrls0_0.readEnergy                      0                       # Energy for read commands per rank (pJ)
system.mem_ctrls0_0.writeEnergy                     0                       # Energy for write commands per rank (pJ)
system.mem_ctrls0_0.refreshEnergy                   0                       # Energy for refresh commands per rank (pJ)
system.mem_ctrls0_0.actBackEnergy                   0                       # Energy for active background per rank (pJ)
system.mem_ctrls0_0.preBackEnergy                   0                       # Energy for precharge background per rank (pJ)
system.mem_ctrls0_0.totalEnergy                     0                       # Total energy per rank (pJ)
system.mem_ctrls0_0.averagePower                    0                       # Core power per rank (mW)
system.mem_ctrls0_0.memoryStateTime::IDLE            0                       # Time in different power states
system.mem_ctrls0_0.memoryStateTime::REF            0                       # Time in different power states
system.mem_ctrls0_0.memoryStateTime::PRE_PDN            0                       # Time in different power states
system.mem_ctrls0_0.memoryStateTime::ACT            0                       # Time in different power states
system.mem_ctrls0_0.memoryStateTime::ACT_PDN            0                       # Time in different power states
system.mem_ctrls0_1.actEnergy                       0                       # Energy for activate commands per rank (pJ)
system.mem_ctrls0_1.preEnergy                       0                       # Energy for precharge commands per rank (pJ)
system.mem_ctrls0_1.readEnergy                      0                       # Energy for read commands per rank (pJ)
system.mem_ctrls0_1.writeEnergy                     0                       # Energy for write commands per rank (pJ)
system.mem_ctrls0_1.refreshEnergy                   0                       # Energy for refresh commands per rank (pJ)
system.mem_ctrls0_1.actBackEnergy                   0                       # Energy for active background per rank (pJ)
system.mem_ctrls0_1.preBackEnergy                   0                       # Energy for precharge background per rank (pJ)
system.mem_ctrls0_1.totalEnergy                     0                       # Total energy per rank (pJ)
system.mem_ctrls0_1.averagePower                    0                       # Core power per rank (mW)
system.mem_ctrls0_1.memoryStateTime::IDLE            0                       # Time in different power states
system.mem_ctrls0_1.memoryStateTime::REF            0                       # Time in different power states
system.mem_ctrls0_1.memoryStateTime::PRE_PDN            0                       # Time in different power states
system.mem_ctrls0_1.memoryStateTime::ACT            0                       # Time in different power states
system.mem_ctrls0_1.memoryStateTime::ACT_PDN            0                       # Time in different power states
system.mem_ctrls1.bytes_read::switch_cpus0.inst        35648                       # Number of bytes read from this memory
system.mem_ctrls1.bytes_read::switch_cpus0.data       153472                       # Number of bytes read from this memory
system.mem_ctrls1.bytes_read::switch_cpus1.inst         3072                       # Number of bytes read from this memory
system.mem_ctrls1.bytes_read::switch_cpus1.data        67648                       # Number of bytes read from this memory
system.mem_ctrls1.bytes_read::switch_cpus3.inst         2560                       # Number of bytes read from this memory
system.mem_ctrls1.bytes_read::switch_cpus3.data       554048                       # Number of bytes read from this memory
system.mem_ctrls1.bytes_read::total            816448                       # Number of bytes read from this memory
system.mem_ctrls1.bytes_inst_read::switch_cpus0.inst        35648                       # Number of instructions bytes read from this memory
system.mem_ctrls1.bytes_inst_read::switch_cpus1.inst         3072                       # Number of instructions bytes read from this memory
system.mem_ctrls1.bytes_inst_read::switch_cpus3.inst         2560                       # Number of instructions bytes read from this memory
system.mem_ctrls1.bytes_inst_read::total        41280                       # Number of instructions bytes read from this memory
system.mem_ctrls1.bytes_written::writebacks       568448                       # Number of bytes written to this memory
system.mem_ctrls1.bytes_written::total         568448                       # Number of bytes written to this memory
system.mem_ctrls1.num_reads::switch_cpus0.inst          557                       # Number of read requests responded to by this memory
system.mem_ctrls1.num_reads::switch_cpus0.data         2398                       # Number of read requests responded to by this memory
system.mem_ctrls1.num_reads::switch_cpus1.inst           48                       # Number of read requests responded to by this memory
system.mem_ctrls1.num_reads::switch_cpus1.data         1057                       # Number of read requests responded to by this memory
system.mem_ctrls1.num_reads::switch_cpus3.inst           40                       # Number of read requests responded to by this memory
system.mem_ctrls1.num_reads::switch_cpus3.data         8657                       # Number of read requests responded to by this memory
system.mem_ctrls1.num_reads::total              12757                       # Number of read requests responded to by this memory
system.mem_ctrls1.num_writes::writebacks         8882                       # Number of write requests responded to by this memory
system.mem_ctrls1.num_writes::total              8882                       # Number of write requests responded to by this memory
system.mem_ctrls1.bw_read::switch_cpus0.inst    100441234                       # Total read bandwidth from this memory (bytes/s)
system.mem_ctrls1.bw_read::switch_cpus0.data    432420248                       # Total read bandwidth from this memory (bytes/s)
system.mem_ctrls1.bw_read::switch_cpus1.inst      8655618                       # Total read bandwidth from this memory (bytes/s)
system.mem_ctrls1.bw_read::switch_cpus1.data    190603921                       # Total read bandwidth from this memory (bytes/s)
system.mem_ctrls1.bw_read::switch_cpus3.inst      7213015                       # Total read bandwidth from this memory (bytes/s)
system.mem_ctrls1.bw_read::switch_cpus3.data   1561076768                       # Total read bandwidth from this memory (bytes/s)
system.mem_ctrls1.bw_read::total           2300410804                       # Total read bandwidth from this memory (bytes/s)
system.mem_ctrls1.bw_inst_read::switch_cpus0.inst    100441234                       # Instruction read bandwidth from this memory (bytes/s)
system.mem_ctrls1.bw_inst_read::switch_cpus1.inst      8655618                       # Instruction read bandwidth from this memory (bytes/s)
system.mem_ctrls1.bw_inst_read::switch_cpus3.inst      7213015                       # Instruction read bandwidth from this memory (bytes/s)
system.mem_ctrls1.bw_inst_read::total       116309867                       # Instruction read bandwidth from this memory (bytes/s)
system.mem_ctrls1.bw_write::writebacks     1601649977                       # Write bandwidth from this memory (bytes/s)
system.mem_ctrls1.bw_write::total          1601649977                       # Write bandwidth from this memory (bytes/s)
system.mem_ctrls1.bw_total::writebacks     1601649977                       # Total bandwidth to/from this memory (bytes/s)
system.mem_ctrls1.bw_total::switch_cpus0.inst    100441234                       # Total bandwidth to/from this memory (bytes/s)
system.mem_ctrls1.bw_total::switch_cpus0.data    432420248                       # Total bandwidth to/from this memory (bytes/s)
system.mem_ctrls1.bw_total::switch_cpus1.inst      8655618                       # Total bandwidth to/from this memory (bytes/s)
system.mem_ctrls1.bw_total::switch_cpus1.data    190603921                       # Total bandwidth to/from this memory (bytes/s)
system.mem_ctrls1.bw_total::switch_cpus3.inst      7213015                       # Total bandwidth to/from this memory (bytes/s)
system.mem_ctrls1.bw_total::switch_cpus3.data   1561076768                       # Total bandwidth to/from this memory (bytes/s)
system.mem_ctrls1.bw_total::total          3902060781                       # Total bandwidth to/from this memory (bytes/s)
system.mem_ctrls1.readReqs                          0                       # Number of read requests accepted
system.mem_ctrls1.writeReqs                         0                       # Number of write requests accepted
system.mem_ctrls1.readBursts                        0                       # Number of DRAM read bursts, including those serviced by the write queue
system.mem_ctrls1.writeBursts                       0                       # Number of DRAM write bursts, including those merged in the write queue
system.mem_ctrls1.bytesReadDRAM                     0                       # Total number of bytes read from DRAM
system.mem_ctrls1.bytesReadWrQ                      0                       # Total number of bytes read from write queue
system.mem_ctrls1.bytesWritten                      0                       # Total number of bytes written to DRAM
system.mem_ctrls1.bytesReadSys                      0                       # Total read bytes from the system interface side
system.mem_ctrls1.bytesWrittenSys                   0                       # Total written bytes from the system interface side
system.mem_ctrls1.servicedByWrQ                     0                       # Number of DRAM read bursts serviced by the write queue
system.mem_ctrls1.mergedWrBursts                    0                       # Number of DRAM write bursts merged with an existing one
system.mem_ctrls1.neitherReadNorWriteReqs            0                       # Number of requests that are neither read nor write
system.mem_ctrls1.perBankRdBursts::0                0                       # Per bank write bursts
system.mem_ctrls1.perBankRdBursts::1                0                       # Per bank write bursts
system.mem_ctrls1.perBankRdBursts::2                0                       # Per bank write bursts
system.mem_ctrls1.perBankRdBursts::3                0                       # Per bank write bursts
system.mem_ctrls1.perBankRdBursts::4                0                       # Per bank write bursts
system.mem_ctrls1.perBankRdBursts::5                0                       # Per bank write bursts
system.mem_ctrls1.perBankRdBursts::6                0                       # Per bank write bursts
system.mem_ctrls1.perBankRdBursts::7                0                       # Per bank write bursts
system.mem_ctrls1.perBankRdBursts::8                0                       # Per bank write bursts
system.mem_ctrls1.perBankRdBursts::9                0                       # Per bank write bursts
system.mem_ctrls1.perBankRdBursts::10               0                       # Per bank write bursts
system.mem_ctrls1.perBankRdBursts::11               0                       # Per bank write bursts
system.mem_ctrls1.perBankRdBursts::12               0                       # Per bank write bursts
system.mem_ctrls1.perBankRdBursts::13               0                       # Per bank write bursts
system.mem_ctrls1.perBankRdBursts::14               0                       # Per bank write bursts
system.mem_ctrls1.perBankRdBursts::15               0                       # Per bank write bursts
system.mem_ctrls1.perBankWrBursts::0                0                       # Per bank write bursts
system.mem_ctrls1.perBankWrBursts::1                0                       # Per bank write bursts
system.mem_ctrls1.perBankWrBursts::2                0                       # Per bank write bursts
system.mem_ctrls1.perBankWrBursts::3                0                       # Per bank write bursts
system.mem_ctrls1.perBankWrBursts::4                0                       # Per bank write bursts
system.mem_ctrls1.perBankWrBursts::5                0                       # Per bank write bursts
system.mem_ctrls1.perBankWrBursts::6                0                       # Per bank write bursts
system.mem_ctrls1.perBankWrBursts::7                0                       # Per bank write bursts
system.mem_ctrls1.perBankWrBursts::8                0                       # Per bank write bursts
system.mem_ctrls1.perBankWrBursts::9                0                       # Per bank write bursts
system.mem_ctrls1.perBankWrBursts::10               0                       # Per bank write bursts
system.mem_ctrls1.perBankWrBursts::11               0                       # Per bank write bursts
system.mem_ctrls1.perBankWrBursts::12               0                       # Per bank write bursts
system.mem_ctrls1.perBankWrBursts::13               0                       # Per bank write bursts
system.mem_ctrls1.perBankWrBursts::14               0                       # Per bank write bursts
system.mem_ctrls1.perBankWrBursts::15               0                       # Per bank write bursts
system.mem_ctrls1.numRdRetry                        0                       # Number of times read queue was full causing retry
system.mem_ctrls1.numWrRetry                        0                       # Number of times write queue was full causing retry
system.mem_ctrls1.totGap                            0                       # Total gap between requests
system.mem_ctrls1.readPktSize::0                    0                       # Read request sizes (log2)
system.mem_ctrls1.readPktSize::1                    0                       # Read request sizes (log2)
system.mem_ctrls1.readPktSize::2                    0                       # Read request sizes (log2)
system.mem_ctrls1.readPktSize::3                    0                       # Read request sizes (log2)
system.mem_ctrls1.readPktSize::4                    0                       # Read request sizes (log2)
system.mem_ctrls1.readPktSize::5                    0                       # Read request sizes (log2)
system.mem_ctrls1.readPktSize::6                    0                       # Read request sizes (log2)
system.mem_ctrls1.writePktSize::0                   0                       # Write request sizes (log2)
system.mem_ctrls1.writePktSize::1                   0                       # Write request sizes (log2)
system.mem_ctrls1.writePktSize::2                   0                       # Write request sizes (log2)
system.mem_ctrls1.writePktSize::3                   0                       # Write request sizes (log2)
system.mem_ctrls1.writePktSize::4                   0                       # Write request sizes (log2)
system.mem_ctrls1.writePktSize::5                   0                       # Write request sizes (log2)
system.mem_ctrls1.writePktSize::6                   0                       # Write request sizes (log2)
system.mem_ctrls1.rdQLenPdf::0                      0                       # What read queue length does an incoming req see
system.mem_ctrls1.rdQLenPdf::1                      0                       # What read queue length does an incoming req see
system.mem_ctrls1.rdQLenPdf::2                      0                       # What read queue length does an incoming req see
system.mem_ctrls1.rdQLenPdf::3                      0                       # What read queue length does an incoming req see
system.mem_ctrls1.rdQLenPdf::4                      0                       # What read queue length does an incoming req see
system.mem_ctrls1.rdQLenPdf::5                      0                       # What read queue length does an incoming req see
system.mem_ctrls1.rdQLenPdf::6                      0                       # What read queue length does an incoming req see
system.mem_ctrls1.rdQLenPdf::7                      0                       # What read queue length does an incoming req see
system.mem_ctrls1.rdQLenPdf::8                      0                       # What read queue length does an incoming req see
system.mem_ctrls1.rdQLenPdf::9                      0                       # What read queue length does an incoming req see
system.mem_ctrls1.rdQLenPdf::10                     0                       # What read queue length does an incoming req see
system.mem_ctrls1.rdQLenPdf::11                     0                       # What read queue length does an incoming req see
system.mem_ctrls1.rdQLenPdf::12                     0                       # What read queue length does an incoming req see
system.mem_ctrls1.rdQLenPdf::13                     0                       # What read queue length does an incoming req see
system.mem_ctrls1.rdQLenPdf::14                     0                       # What read queue length does an incoming req see
system.mem_ctrls1.rdQLenPdf::15                     0                       # What read queue length does an incoming req see
system.mem_ctrls1.rdQLenPdf::16                     0                       # What read queue length does an incoming req see
system.mem_ctrls1.rdQLenPdf::17                     0                       # What read queue length does an incoming req see
system.mem_ctrls1.rdQLenPdf::18                     0                       # What read queue length does an incoming req see
system.mem_ctrls1.rdQLenPdf::19                     0                       # What read queue length does an incoming req see
system.mem_ctrls1.rdQLenPdf::20                     0                       # What read queue length does an incoming req see
system.mem_ctrls1.rdQLenPdf::21                     0                       # What read queue length does an incoming req see
system.mem_ctrls1.rdQLenPdf::22                     0                       # What read queue length does an incoming req see
system.mem_ctrls1.rdQLenPdf::23                     0                       # What read queue length does an incoming req see
system.mem_ctrls1.rdQLenPdf::24                     0                       # What read queue length does an incoming req see
system.mem_ctrls1.rdQLenPdf::25                     0                       # What read queue length does an incoming req see
system.mem_ctrls1.rdQLenPdf::26                     0                       # What read queue length does an incoming req see
system.mem_ctrls1.rdQLenPdf::27                     0                       # What read queue length does an incoming req see
system.mem_ctrls1.rdQLenPdf::28                     0                       # What read queue length does an incoming req see
system.mem_ctrls1.rdQLenPdf::29                     0                       # What read queue length does an incoming req see
system.mem_ctrls1.rdQLenPdf::30                     0                       # What read queue length does an incoming req see
system.mem_ctrls1.rdQLenPdf::31                     0                       # What read queue length does an incoming req see
system.mem_ctrls1.wrQLenPdf::0                      0                       # What write queue length does an incoming req see
system.mem_ctrls1.wrQLenPdf::1                      0                       # What write queue length does an incoming req see
system.mem_ctrls1.wrQLenPdf::2                      0                       # What write queue length does an incoming req see
system.mem_ctrls1.wrQLenPdf::3                      0                       # What write queue length does an incoming req see
system.mem_ctrls1.wrQLenPdf::4                      0                       # What write queue length does an incoming req see
system.mem_ctrls1.wrQLenPdf::5                      0                       # What write queue length does an incoming req see
system.mem_ctrls1.wrQLenPdf::6                      0                       # What write queue length does an incoming req see
system.mem_ctrls1.wrQLenPdf::7                      0                       # What write queue length does an incoming req see
system.mem_ctrls1.wrQLenPdf::8                      0                       # What write queue length does an incoming req see
system.mem_ctrls1.wrQLenPdf::9                      0                       # What write queue length does an incoming req see
system.mem_ctrls1.wrQLenPdf::10                     0                       # What write queue length does an incoming req see
system.mem_ctrls1.wrQLenPdf::11                     0                       # What write queue length does an incoming req see
system.mem_ctrls1.wrQLenPdf::12                     0                       # What write queue length does an incoming req see
system.mem_ctrls1.wrQLenPdf::13                     0                       # What write queue length does an incoming req see
system.mem_ctrls1.wrQLenPdf::14                     0                       # What write queue length does an incoming req see
system.mem_ctrls1.wrQLenPdf::15                     0                       # What write queue length does an incoming req see
system.mem_ctrls1.wrQLenPdf::16                     0                       # What write queue length does an incoming req see
system.mem_ctrls1.wrQLenPdf::17                     0                       # What write queue length does an incoming req see
system.mem_ctrls1.wrQLenPdf::18                     0                       # What write queue length does an incoming req see
system.mem_ctrls1.wrQLenPdf::19                     0                       # What write queue length does an incoming req see
system.mem_ctrls1.wrQLenPdf::20                     0                       # What write queue length does an incoming req see
system.mem_ctrls1.wrQLenPdf::21                     0                       # What write queue length does an incoming req see
system.mem_ctrls1.wrQLenPdf::22                     0                       # What write queue length does an incoming req see
system.mem_ctrls1.wrQLenPdf::23                     0                       # What write queue length does an incoming req see
system.mem_ctrls1.wrQLenPdf::24                     0                       # What write queue length does an incoming req see
system.mem_ctrls1.wrQLenPdf::25                     0                       # What write queue length does an incoming req see
system.mem_ctrls1.wrQLenPdf::26                     0                       # What write queue length does an incoming req see
system.mem_ctrls1.wrQLenPdf::27                     0                       # What write queue length does an incoming req see
system.mem_ctrls1.wrQLenPdf::28                     0                       # What write queue length does an incoming req see
system.mem_ctrls1.wrQLenPdf::29                     0                       # What write queue length does an incoming req see
system.mem_ctrls1.wrQLenPdf::30                     0                       # What write queue length does an incoming req see
system.mem_ctrls1.wrQLenPdf::31                     0                       # What write queue length does an incoming req see
system.mem_ctrls1.wrQLenPdf::32                     0                       # What write queue length does an incoming req see
system.mem_ctrls1.wrQLenPdf::33                     0                       # What write queue length does an incoming req see
system.mem_ctrls1.wrQLenPdf::34                     0                       # What write queue length does an incoming req see
system.mem_ctrls1.wrQLenPdf::35                     0                       # What write queue length does an incoming req see
system.mem_ctrls1.wrQLenPdf::36                     0                       # What write queue length does an incoming req see
system.mem_ctrls1.wrQLenPdf::37                     0                       # What write queue length does an incoming req see
system.mem_ctrls1.wrQLenPdf::38                     0                       # What write queue length does an incoming req see
system.mem_ctrls1.wrQLenPdf::39                     0                       # What write queue length does an incoming req see
system.mem_ctrls1.wrQLenPdf::40                     0                       # What write queue length does an incoming req see
system.mem_ctrls1.wrQLenPdf::41                     0                       # What write queue length does an incoming req see
system.mem_ctrls1.wrQLenPdf::42                     0                       # What write queue length does an incoming req see
system.mem_ctrls1.wrQLenPdf::43                     0                       # What write queue length does an incoming req see
system.mem_ctrls1.wrQLenPdf::44                     0                       # What write queue length does an incoming req see
system.mem_ctrls1.wrQLenPdf::45                     0                       # What write queue length does an incoming req see
system.mem_ctrls1.wrQLenPdf::46                     0                       # What write queue length does an incoming req see
system.mem_ctrls1.wrQLenPdf::47                     0                       # What write queue length does an incoming req see
system.mem_ctrls1.wrQLenPdf::48                     0                       # What write queue length does an incoming req see
system.mem_ctrls1.wrQLenPdf::49                     0                       # What write queue length does an incoming req see
system.mem_ctrls1.wrQLenPdf::50                     0                       # What write queue length does an incoming req see
system.mem_ctrls1.wrQLenPdf::51                     0                       # What write queue length does an incoming req see
system.mem_ctrls1.wrQLenPdf::52                     0                       # What write queue length does an incoming req see
system.mem_ctrls1.wrQLenPdf::53                     0                       # What write queue length does an incoming req see
system.mem_ctrls1.wrQLenPdf::54                     0                       # What write queue length does an incoming req see
system.mem_ctrls1.wrQLenPdf::55                     0                       # What write queue length does an incoming req see
system.mem_ctrls1.wrQLenPdf::56                     0                       # What write queue length does an incoming req see
system.mem_ctrls1.wrQLenPdf::57                     0                       # What write queue length does an incoming req see
system.mem_ctrls1.wrQLenPdf::58                     0                       # What write queue length does an incoming req see
system.mem_ctrls1.wrQLenPdf::59                     0                       # What write queue length does an incoming req see
system.mem_ctrls1.wrQLenPdf::60                     0                       # What write queue length does an incoming req see
system.mem_ctrls1.wrQLenPdf::61                     0                       # What write queue length does an incoming req see
system.mem_ctrls1.wrQLenPdf::62                     0                       # What write queue length does an incoming req see
system.mem_ctrls1.wrQLenPdf::63                     0                       # What write queue length does an incoming req see
system.mem_ctrls1.totQLat                           0                       # Total ticks spent queuing
system.mem_ctrls1.totMemAccLat                      0                       # Total ticks spent from burst creation until serviced by the DRAM
system.mem_ctrls1.totBusLat                         0                       # Total ticks spent in databus transfers
system.mem_ctrls1.avgQLat                         nan                       # Average queueing delay per DRAM burst
system.mem_ctrls1.avgBusLat                       nan                       # Average bus latency per DRAM burst
system.mem_ctrls1.avgMemAccLat                    nan                       # Average memory access latency per DRAM burst
system.mem_ctrls1.avgRdBW                        0.00                       # Average DRAM read bandwidth in MiByte/s
system.mem_ctrls1.avgWrBW                        0.00                       # Average achieved write bandwidth in MiByte/s
system.mem_ctrls1.avgRdBWSys                     0.00                       # Average system read bandwidth in MiByte/s
system.mem_ctrls1.avgWrBWSys                     0.00                       # Average system write bandwidth in MiByte/s
system.mem_ctrls1.peakBW                     12800.00                       # Theoretical peak bandwidth in MiByte/s
system.mem_ctrls1.busUtil                        0.00                       # Data bus utilization in percentage
system.mem_ctrls1.busUtilRead                    0.00                       # Data bus utilization in percentage for reads
system.mem_ctrls1.busUtilWrite                   0.00                       # Data bus utilization in percentage for writes
system.mem_ctrls1.avgRdQLen                      0.00                       # Average read queue length when enqueuing
system.mem_ctrls1.avgWrQLen                      0.00                       # Average write queue length when enqueuing
system.mem_ctrls1.readRowHits                       0                       # Number of row buffer hits during reads
system.mem_ctrls1.writeRowHits                      0                       # Number of row buffer hits during writes
system.mem_ctrls1.readRowHitRate                  nan                       # Row buffer hit rate for reads
system.mem_ctrls1.writeRowHitRate                 nan                       # Row buffer hit rate for writes
system.mem_ctrls1.avgGap                          nan                       # Average gap between requests
system.mem_ctrls1.pageHitRate                     nan                       # Row buffer hit rate, read and write combined
system.mem_ctrls1_0.actEnergy                       0                       # Energy for activate commands per rank (pJ)
system.mem_ctrls1_0.preEnergy                       0                       # Energy for precharge commands per rank (pJ)
system.mem_ctrls1_0.readEnergy                      0                       # Energy for read commands per rank (pJ)
system.mem_ctrls1_0.writeEnergy                     0                       # Energy for write commands per rank (pJ)
system.mem_ctrls1_0.refreshEnergy                   0                       # Energy for refresh commands per rank (pJ)
system.mem_ctrls1_0.actBackEnergy                   0                       # Energy for active background per rank (pJ)
system.mem_ctrls1_0.preBackEnergy                   0                       # Energy for precharge background per rank (pJ)
system.mem_ctrls1_0.totalEnergy                     0                       # Total energy per rank (pJ)
system.mem_ctrls1_0.averagePower                    0                       # Core power per rank (mW)
system.mem_ctrls1_0.memoryStateTime::IDLE            0                       # Time in different power states
system.mem_ctrls1_0.memoryStateTime::REF            0                       # Time in different power states
system.mem_ctrls1_0.memoryStateTime::PRE_PDN            0                       # Time in different power states
system.mem_ctrls1_0.memoryStateTime::ACT            0                       # Time in different power states
system.mem_ctrls1_0.memoryStateTime::ACT_PDN            0                       # Time in different power states
system.mem_ctrls1_1.actEnergy                       0                       # Energy for activate commands per rank (pJ)
system.mem_ctrls1_1.preEnergy                       0                       # Energy for precharge commands per rank (pJ)
system.mem_ctrls1_1.readEnergy                      0                       # Energy for read commands per rank (pJ)
system.mem_ctrls1_1.writeEnergy                     0                       # Energy for write commands per rank (pJ)
system.mem_ctrls1_1.refreshEnergy                   0                       # Energy for refresh commands per rank (pJ)
system.mem_ctrls1_1.actBackEnergy                   0                       # Energy for active background per rank (pJ)
system.mem_ctrls1_1.preBackEnergy                   0                       # Energy for precharge background per rank (pJ)
system.mem_ctrls1_1.totalEnergy                     0                       # Total energy per rank (pJ)
system.mem_ctrls1_1.averagePower                    0                       # Core power per rank (mW)
system.mem_ctrls1_1.memoryStateTime::IDLE            0                       # Time in different power states
system.mem_ctrls1_1.memoryStateTime::REF            0                       # Time in different power states
system.mem_ctrls1_1.memoryStateTime::PRE_PDN            0                       # Time in different power states
system.mem_ctrls1_1.memoryStateTime::ACT            0                       # Time in different power states
system.mem_ctrls1_1.memoryStateTime::ACT_PDN            0                       # Time in different power states
system.cpu_voltage_domain.voltage                   1                       # Voltage in Volts
system.cpu_clk_domain.clock                       500                       # Clock period in ticks
system.cpu0.dtb.fetch_hits                          0                       # ITB hits
system.cpu0.dtb.fetch_misses                        0                       # ITB misses
system.cpu0.dtb.fetch_acv                           0                       # ITB acv
system.cpu0.dtb.fetch_accesses                      0                       # ITB accesses
system.cpu0.dtb.read_hits                           0                       # DTB read hits
system.cpu0.dtb.read_misses                         0                       # DTB read misses
system.cpu0.dtb.read_acv                            0                       # DTB read access violations
system.cpu0.dtb.read_accesses                       0                       # DTB read accesses
system.cpu0.dtb.write_hits                          0                       # DTB write hits
system.cpu0.dtb.write_misses                        0                       # DTB write misses
system.cpu0.dtb.write_acv                           0                       # DTB write access violations
system.cpu0.dtb.write_accesses                      0                       # DTB write accesses
system.cpu0.dtb.data_hits                           0                       # DTB hits
system.cpu0.dtb.data_misses                         0                       # DTB misses
system.cpu0.dtb.data_acv                            0                       # DTB access violations
system.cpu0.dtb.data_accesses                       0                       # DTB accesses
system.cpu0.itb.fetch_hits                          0                       # ITB hits
system.cpu0.itb.fetch_misses                        0                       # ITB misses
system.cpu0.itb.fetch_acv                           0                       # ITB acv
system.cpu0.itb.fetch_accesses                      0                       # ITB accesses
system.cpu0.itb.read_hits                           0                       # DTB read hits
system.cpu0.itb.read_misses                         0                       # DTB read misses
system.cpu0.itb.read_acv                            0                       # DTB read access violations
system.cpu0.itb.read_accesses                       0                       # DTB read accesses
system.cpu0.itb.write_hits                          0                       # DTB write hits
system.cpu0.itb.write_misses                        0                       # DTB write misses
system.cpu0.itb.write_acv                           0                       # DTB write access violations
system.cpu0.itb.write_accesses                      0                       # DTB write accesses
system.cpu0.itb.data_hits                           0                       # DTB hits
system.cpu0.itb.data_misses                         0                       # DTB misses
system.cpu0.itb.data_acv                            0                       # DTB access violations
system.cpu0.itb.data_accesses                       0                       # DTB accesses
system.cpu0.numCycles                               0                       # number of cpu cycles simulated
system.cpu0.numWorkItemsStarted                     0                       # number of work items this cpu started
system.cpu0.numWorkItemsCompleted                   0                       # number of work items this cpu completed
system.cpu0.kern.inst.arm                           0                       # number of arm instructions executed
system.cpu0.kern.inst.quiesce                       2                       # number of quiesce instructions executed
system.cpu0.kern.inst.hwrei                       576                       # number of hwrei instructions executed
system.cpu0.kern.ipl_count::0                     164     47.67%     47.67% # number of times we switched to this ipl
system.cpu0.kern.ipl_count::30                      1      0.29%     47.97% # number of times we switched to this ipl
system.cpu0.kern.ipl_count::31                    179     52.03%    100.00% # number of times we switched to this ipl
system.cpu0.kern.ipl_count::total                 344                       # number of times we switched to this ipl
system.cpu0.kern.ipl_good::0                      164     50.00%     50.00% # number of times we switched to this ipl from a different ipl
system.cpu0.kern.ipl_good::30                       1      0.30%     50.30% # number of times we switched to this ipl from a different ipl
system.cpu0.kern.ipl_good::31                     163     49.70%    100.00% # number of times we switched to this ipl from a different ipl
system.cpu0.kern.ipl_good::total                  328                       # number of times we switched to this ipl from a different ipl
system.cpu0.kern.ipl_ticks::0               139279500     91.91%     91.91% # number of cycles we spent at this ipl
system.cpu0.kern.ipl_ticks::30                 164500      0.11%     92.02% # number of cycles we spent at this ipl
system.cpu0.kern.ipl_ticks::31               12095000      7.98%    100.00% # number of cycles we spent at this ipl
system.cpu0.kern.ipl_ticks::total           151539000                       # number of cycles we spent at this ipl
system.cpu0.kern.ipl_used::0                        1                       # fraction of swpipl calls that actually changed the ipl
system.cpu0.kern.ipl_used::30                       1                       # fraction of swpipl calls that actually changed the ipl
system.cpu0.kern.ipl_used::31                0.910615                       # fraction of swpipl calls that actually changed the ipl
system.cpu0.kern.ipl_used::total             0.953488                       # fraction of swpipl calls that actually changed the ipl
system.cpu0.kern.syscall::2                         1     33.33%     33.33% # number of syscalls executed
system.cpu0.kern.syscall::3                         1     33.33%     66.67% # number of syscalls executed
system.cpu0.kern.syscall::19                        1     33.33%    100.00% # number of syscalls executed
system.cpu0.kern.syscall::total                     3                       # number of syscalls executed
system.cpu0.kern.callpal::wripir                    1      0.27%      0.27% # number of callpals executed
system.cpu0.kern.callpal::swpctx                   12      3.25%      3.52% # number of callpals executed
system.cpu0.kern.callpal::tbi                       2      0.54%      4.07% # number of callpals executed
system.cpu0.kern.callpal::swpipl                  325     88.08%     92.14% # number of callpals executed
system.cpu0.kern.callpal::rdusp                     1      0.27%     92.41% # number of callpals executed
system.cpu0.kern.callpal::rti                      18      4.88%     97.29% # number of callpals executed
system.cpu0.kern.callpal::callsys                   9      2.44%     99.73% # number of callpals executed
system.cpu0.kern.callpal::imb                       1      0.27%    100.00% # number of callpals executed
system.cpu0.kern.callpal::total                   369                       # number of callpals executed
system.cpu0.kern.mode_switch::kernel               31                       # number of protection mode switches
system.cpu0.kern.mode_switch::user                 17                       # number of protection mode switches
system.cpu0.kern.mode_switch::idle                  0                       # number of protection mode switches
system.cpu0.kern.mode_good::kernel                 18                      
system.cpu0.kern.mode_good::user                   17                      
system.cpu0.kern.mode_good::idle                    0                      
system.cpu0.kern.mode_switch_good::kernel     0.580645                       # fraction of useful protection mode switches
system.cpu0.kern.mode_switch_good::user             1                       # fraction of useful protection mode switches
system.cpu0.kern.mode_switch_good::idle           nan                       # fraction of useful protection mode switches
system.cpu0.kern.mode_switch_good::total     0.729167                       # fraction of useful protection mode switches
system.cpu0.kern.mode_ticks::kernel          61965000     75.31%     75.31% # number of ticks spent at the given mode
system.cpu0.kern.mode_ticks::user            20313000     24.69%    100.00% # number of ticks spent at the given mode
system.cpu0.kern.mode_ticks::idle                   0      0.00%    100.00% # number of ticks spent at the given mode
system.cpu0.kern.swap_context                      12                       # number of times the context was actually changed
system.cpu0.committedInsts                          0                       # Number of instructions committed
system.cpu0.committedOps                            0                       # Number of ops (including micro ops) committed
system.cpu0.num_int_alu_accesses                    0                       # Number of integer alu accesses
system.cpu0.num_fp_alu_accesses                     0                       # Number of float alu accesses
system.cpu0.num_func_calls                          0                       # number of times a function call or return occured
system.cpu0.num_conditional_control_insts            0                       # number of instructions that are conditional controls
system.cpu0.num_int_insts                           0                       # number of integer instructions
system.cpu0.num_fp_insts                            0                       # number of float instructions
system.cpu0.num_int_register_reads                  0                       # number of times the integer registers were read
system.cpu0.num_int_register_writes                 0                       # number of times the integer registers were written
system.cpu0.num_fp_register_reads                   0                       # number of times the floating registers were read
system.cpu0.num_fp_register_writes                  0                       # number of times the floating registers were written
system.cpu0.num_mem_refs                            0                       # number of memory refs
system.cpu0.num_load_insts                          0                       # Number of load instructions
system.cpu0.num_store_insts                         0                       # Number of store instructions
system.cpu0.num_idle_cycles                         0                       # Number of idle cycles
system.cpu0.num_busy_cycles                         0                       # Number of busy cycles
system.cpu0.not_idle_fraction                       1                       # Percentage of non-idle cycles
system.cpu0.idle_fraction                           0                       # Percentage of idle cycles
system.cpu0.op_class::No_OpClass                    0                       # Class of executed instruction
system.cpu0.op_class::IntAlu                        0                       # Class of executed instruction
system.cpu0.op_class::IntMult                       0                       # Class of executed instruction
system.cpu0.op_class::IntDiv                        0                       # Class of executed instruction
system.cpu0.op_class::FloatAdd                      0                       # Class of executed instruction
system.cpu0.op_class::FloatCmp                      0                       # Class of executed instruction
system.cpu0.op_class::FloatCvt                      0                       # Class of executed instruction
system.cpu0.op_class::FloatMult                     0                       # Class of executed instruction
system.cpu0.op_class::FloatDiv                      0                       # Class of executed instruction
system.cpu0.op_class::FloatSqrt                     0                       # Class of executed instruction
system.cpu0.op_class::SimdAdd                       0                       # Class of executed instruction
system.cpu0.op_class::SimdAddAcc                    0                       # Class of executed instruction
system.cpu0.op_class::SimdAlu                       0                       # Class of executed instruction
system.cpu0.op_class::SimdCmp                       0                       # Class of executed instruction
system.cpu0.op_class::SimdCvt                       0                       # Class of executed instruction
system.cpu0.op_class::SimdMisc                      0                       # Class of executed instruction
system.cpu0.op_class::SimdMult                      0                       # Class of executed instruction
system.cpu0.op_class::SimdMultAcc                   0                       # Class of executed instruction
system.cpu0.op_class::SimdShift                     0                       # Class of executed instruction
system.cpu0.op_class::SimdShiftAcc                  0                       # Class of executed instruction
system.cpu0.op_class::SimdSqrt                      0                       # Class of executed instruction
system.cpu0.op_class::SimdFloatAdd                  0                       # Class of executed instruction
system.cpu0.op_class::SimdFloatAlu                  0                       # Class of executed instruction
system.cpu0.op_class::SimdFloatCmp                  0                       # Class of executed instruction
system.cpu0.op_class::SimdFloatCvt                  0                       # Class of executed instruction
system.cpu0.op_class::SimdFloatDiv                  0                       # Class of executed instruction
system.cpu0.op_class::SimdFloatMisc                 0                       # Class of executed instruction
system.cpu0.op_class::SimdFloatMult                 0                       # Class of executed instruction
system.cpu0.op_class::SimdFloatMultAcc              0                       # Class of executed instruction
system.cpu0.op_class::SimdFloatSqrt                 0                       # Class of executed instruction
system.cpu0.op_class::MemRead                       0                       # Class of executed instruction
system.cpu0.op_class::MemWrite                      0                       # Class of executed instruction
system.cpu0.op_class::IprAccess                     0                       # Class of executed instruction
system.cpu0.op_class::InstPrefetch                  0                       # Class of executed instruction
system.cpu0.op_class::total                         0                       # Class of executed instruction
system.cpu0.dcache.tags.replacements             5033                       # number of replacements
system.cpu0.dcache.tags.tagsinuse          496.423246                       # Cycle average of tags in use
system.cpu0.dcache.tags.total_refs              64913                       # Total number of references to valid blocks.
system.cpu0.dcache.tags.sampled_refs             5033                       # Sample count of references to valid blocks.
system.cpu0.dcache.tags.avg_refs            12.897477                       # Average number of references to valid blocks.
system.cpu0.dcache.tags.warmup_cycle                0                       # Cycle when the warmup percentage was hit.
system.cpu0.dcache.tags.occ_blocks::cpu0.data    24.358560                       # Average occupied blocks per requestor
system.cpu0.dcache.tags.occ_blocks::switch_cpus0.data   472.064686                       # Average occupied blocks per requestor
system.cpu0.dcache.tags.occ_percent::cpu0.data     0.047575                       # Average percentage of cache occupancy
system.cpu0.dcache.tags.occ_percent::switch_cpus0.data     0.922001                       # Average percentage of cache occupancy
system.cpu0.dcache.tags.occ_percent::total     0.969577                       # Average percentage of cache occupancy
system.cpu0.dcache.tags.occ_task_id_blocks::1024          488                       # Occupied blocks per task id
system.cpu0.dcache.tags.age_task_id_blocks_1024::2          488                       # Occupied blocks per task id
system.cpu0.dcache.tags.occ_task_id_percent::1024     0.953125                       # Percentage of cache occupancy per task id
system.cpu0.dcache.tags.tag_accesses           130256                       # Number of tag accesses
system.cpu0.dcache.tags.data_accesses          130256                       # Number of data accesses
system.cpu0.dcache.ReadReq_hits::switch_cpus0.data        30600                       # number of ReadReq hits
system.cpu0.dcache.ReadReq_hits::total          30600                       # number of ReadReq hits
system.cpu0.dcache.WriteReq_hits::switch_cpus0.data        25720                       # number of WriteReq hits
system.cpu0.dcache.WriteReq_hits::total         25720                       # number of WriteReq hits
system.cpu0.dcache.LoadLockedReq_hits::switch_cpus0.data          514                       # number of LoadLockedReq hits
system.cpu0.dcache.LoadLockedReq_hits::total          514                       # number of LoadLockedReq hits
system.cpu0.dcache.StoreCondReq_hits::switch_cpus0.data          583                       # number of StoreCondReq hits
system.cpu0.dcache.StoreCondReq_hits::total          583                       # number of StoreCondReq hits
system.cpu0.dcache.demand_hits::switch_cpus0.data        56320                       # number of demand (read+write) hits
system.cpu0.dcache.demand_hits::total           56320                       # number of demand (read+write) hits
system.cpu0.dcache.overall_hits::switch_cpus0.data        56320                       # number of overall hits
system.cpu0.dcache.overall_hits::total          56320                       # number of overall hits
system.cpu0.dcache.ReadReq_misses::switch_cpus0.data         2878                       # number of ReadReq misses
system.cpu0.dcache.ReadReq_misses::total         2878                       # number of ReadReq misses
[...]
system.switch_cpus2.op_class::SimdFloatSqrt            0      0.00%     76.83% # Class of executed instruction
system.switch_cpus2.op_class::MemRead          350288     14.87%     91.70% # Class of executed instruction
system.switch_cpus2.op_class::MemWrite         179521      7.62%     99.32% # Class of executed instruction
system.switch_cpus2.op_class::IprAccess         16043      0.68%    100.00% # Class of executed instruction
system.switch_cpus2.op_class::InstPrefetch            0      0.00%    100.00% # Class of executed instruction
system.switch_cpus2.op_class::total           2355377                       # Class of executed instruction
system.switch_cpus3.dtb.fetch_hits                  0                       # ITB hits
system.switch_cpus3.dtb.fetch_misses                0                       # ITB misses
system.switch_cpus3.dtb.fetch_acv                   0                       # ITB acv
system.switch_cpus3.dtb.fetch_accesses              0                       # ITB accesses
system.switch_cpus3.dtb.read_hits               24574                       # DTB read hits
system.switch_cpus3.dtb.read_misses               329                       # DTB read misses
system.switch_cpus3.dtb.read_acv                   12                       # DTB read access violations
system.switch_cpus3.dtb.read_accesses            1826                       # DTB read accesses
system.switch_cpus3.dtb.write_hits              14248                       # DTB write hits
system.switch_cpus3.dtb.write_misses               35                       # DTB write misses
system.switch_cpus3.dtb.write_acv                   9                       # DTB write access violations
system.switch_cpus3.dtb.write_accesses            872                       # DTB write accesses
system.switch_cpus3.dtb.data_hits               38822                       # DTB hits
system.switch_cpus3.dtb.data_misses               364                       # DTB misses
system.switch_cpus3.dtb.data_acv                   21                       # DTB access violations
system.switch_cpus3.dtb.data_accesses            2698                       # DTB accesses
system.switch_cpus3.itb.fetch_hits              23640                       # ITB hits
system.switch_cpus3.itb.fetch_misses              125                       # ITB misses
system.switch_cpus3.itb.fetch_acv                   0                       # ITB acv
system.switch_cpus3.itb.fetch_accesses          23765                       # ITB accesses
system.switch_cpus3.itb.read_hits                   0                       # DTB read hits
system.switch_cpus3.itb.read_misses                 0                       # DTB read misses
system.switch_cpus3.itb.read_acv                    0                       # DTB read access violations
system.switch_cpus3.itb.read_accesses               0                       # DTB read accesses
system.switch_cpus3.itb.write_hits                  0                       # DTB write hits
system.switch_cpus3.itb.write_misses                0                       # DTB write misses
system.switch_cpus3.itb.write_acv                   0                       # DTB write access violations
system.switch_cpus3.itb.write_accesses              0                       # DTB write accesses
system.switch_cpus3.itb.data_hits                   0                       # DTB hits
system.switch_cpus3.itb.data_misses                 0                       # DTB misses
system.switch_cpus3.itb.data_acv                    0                       # DTB access violations
system.switch_cpus3.itb.data_accesses               0                       # DTB accesses
system.switch_cpus3.numCycles                 2952073                       # number of cpu cycles simulated
system.switch_cpus3.numWorkItemsStarted             0                       # number of work items this cpu started
system.switch_cpus3.numWorkItemsCompleted            0                       # number of work items this cpu completed
system.switch_cpus3.kern.inst.arm                   0                       # number of arm instructions executed
system.switch_cpus3.kern.inst.quiesce               0                       # number of quiesce instructions executed
system.switch_cpus3.kern.inst.hwrei                 0                       # number of hwrei instructions executed
system.switch_cpus3.kern.mode_switch::kernel            0                       # number of protection mode switches
system.switch_cpus3.kern.mode_switch::user            0                       # number of protection mode switches
system.switch_cpus3.kern.mode_switch::idle            0                       # number of protection mode switches
system.switch_cpus3.kern.mode_good::kernel            0                      
system.switch_cpus3.kern.mode_good::user            0                      
system.switch_cpus3.kern.mode_good::idle            0                      
system.switch_cpus3.kern.mode_switch_good::kernel          nan                       # fraction of useful protection mode switches
system.switch_cpus3.kern.mode_switch_good::user          nan                       # fraction of useful protection mode switches
system.switch_cpus3.kern.mode_switch_good::idle          nan                       # fraction of useful protection mode switches
system.switch_cpus3.kern.mode_switch_good::total          nan                       # fraction of useful protection mode switches
system.switch_cpus3.kern.mode_ticks::kernel            0                       # number of ticks spent at the given mode
system.switch_cpus3.kern.mode_ticks::user            0                       # number of ticks spent at the given mode
system.switch_cpus3.kern.mode_ticks::idle            0                       # number of ticks spent at the given mode
system.switch_cpus3.kern.swap_context               0                       # number of times the context was actually changed
system.switch_cpus3.committedInsts             139128                       # Number of instructions committed
system.switch_cpus3.committedOps               139128                       # Number of ops (including micro ops) committed
system.switch_cpus3.num_int_alu_accesses       133652                       # Number of integer alu accesses
system.switch_cpus3.num_fp_alu_accesses           296                       # Number of float alu accesses
system.switch_cpus3.num_func_calls               2869                       # number of times a function call or return occured
system.switch_cpus3.num_conditional_control_insts        16399                       # number of instructions that are conditional controls
system.switch_cpus3.num_int_insts              133652                       # number of integer instructions
system.switch_cpus3.num_fp_insts                  296                       # number of float instructions
system.switch_cpus3.num_int_register_reads       177430                       # number of times the integer registers were read
system.switch_cpus3.num_int_register_writes       101787                       # number of times the integer registers were written
system.switch_cpus3.num_fp_register_reads          153                       # number of times the floating registers were read
system.switch_cpus3.num_fp_register_writes          155                       # number of times the floating registers were written
system.switch_cpus3.num_mem_refs                39934                       # number of memory refs
system.switch_cpus3.num_load_insts              25463                       # Number of load instructions
system.switch_cpus3.num_store_insts             14471                       # Number of store instructions
system.switch_cpus3.num_idle_cycles      2810003.032026                       # Number of idle cycles
system.switch_cpus3.num_busy_cycles      142069.967974                       # Number of busy cycles
system.switch_cpus3.not_idle_fraction        0.048125                       # Percentage of non-idle cycles
system.switch_cpus3.idle_fraction            0.951875                       # Percentage of idle cycles
system.switch_cpus3.Branches                    20364                       # Number of branches fetched
system.switch_cpus3.op_class::No_OpClass         2846      2.04%      2.04% # Class of executed instruction
system.switch_cpus3.op_class::IntAlu            88979     63.78%     65.82% # Class of executed instruction
system.switch_cpus3.op_class::IntMult              98      0.07%     65.89% # Class of executed instruction
system.switch_cpus3.op_class::IntDiv                0      0.00%     65.89% # Class of executed instruction
system.switch_cpus3.op_class::FloatAdd             24      0.02%     65.91% # Class of executed instruction
system.switch_cpus3.op_class::FloatCmp              0      0.00%     65.91% # Class of executed instruction
system.switch_cpus3.op_class::FloatCvt              0      0.00%     65.91% # Class of executed instruction
system.switch_cpus3.op_class::FloatMult             0      0.00%     65.91% # Class of executed instruction
system.switch_cpus3.op_class::FloatDiv              3      0.00%     65.91% # Class of executed instruction
system.switch_cpus3.op_class::FloatSqrt             0      0.00%     65.91% # Class of executed instruction
system.switch_cpus3.op_class::SimdAdd               0      0.00%     65.91% # Class of executed instruction
system.switch_cpus3.op_class::SimdAddAcc            0      0.00%     65.91% # Class of executed instruction
system.switch_cpus3.op_class::SimdAlu               0      0.00%     65.91% # Class of executed instruction
system.switch_cpus3.op_class::SimdCmp               0      0.00%     65.91% # Class of executed instruction
system.switch_cpus3.op_class::SimdCvt               0      0.00%     65.91% # Class of executed instruction
system.switch_cpus3.op_class::SimdMisc              0      0.00%     65.91% # Class of executed instruction
system.switch_cpus3.op_class::SimdMult              0      0.00%     65.91% # Class of executed instruction
system.switch_cpus3.op_class::SimdMultAcc            0      0.00%     65.91% # Class of executed instruction
system.switch_cpus3.op_class::SimdShift             0      0.00%     65.91% # Class of executed instruction
system.switch_cpus3.op_class::SimdShiftAcc            0      0.00%     65.91% # Class of executed instruction
system.switch_cpus3.op_class::SimdSqrt              0      0.00%     65.91% # Class of executed instruction
system.switch_cpus3.op_class::SimdFloatAdd            0      0.00%     65.91% # Class of executed instruction
system.switch_cpus3.op_class::SimdFloatAlu            0      0.00%     65.91% # Class of executed instruction
system.switch_cpus3.op_class::SimdFloatCmp            0      0.00%     65.91% # Class of executed instruction
system.switch_cpus3.op_class::SimdFloatCvt            0      0.00%     65.91% # Class of executed instruction
system.switch_cpus3.op_class::SimdFloatDiv            0      0.00%     65.91% # Class of executed instruction
system.switch_cpus3.op_class::SimdFloatMisc            0      0.00%     65.91% # Class of executed instruction
system.switch_cpus3.op_class::SimdFloatMult            0      0.00%     65.91% # Class of executed instruction
system.switch_cpus3.op_class::SimdFloatMultAcc            0      0.00%     65.91% # Class of executed instruction
system.switch_cpus3.op_class::SimdFloatSqrt            0      0.00%     65.91% # Class of executed instruction
system.switch_cpus3.op_class::MemRead           26549     19.03%     84.94% # Class of executed instruction
system.switch_cpus3.op_class::MemWrite          14482     10.38%     95.32% # Class of executed instruction
system.switch_cpus3.op_class::IprAccess          6532      4.68%    100.00% # Class of executed instruction
system.switch_cpus3.op_class::InstPrefetch            0      0.00%    100.00% # Class of executed instruction
system.switch_cpus3.op_class::total            139513                       # Class of executed instruction
system.system_bus.trans_dist::ReadResp           9112                       # Transaction distribution
system.system_bus.trans_dist::WriteReq             12                       # Transaction distribution
system.system_bus.trans_dist::WriteResp            12                       # Transaction distribution
system.system_bus.trans_dist::WritebackDirty         6679                       # Transaction distribution
system.system_bus.trans_dist::CleanEvict         7256                       # Transaction distribution
system.system_bus.trans_dist::UpgradeReq          142                       # Transaction distribution
system.system_bus.trans_dist::SCUpgradeReq           67                       # Transaction distribution
system.system_bus.trans_dist::UpgradeResp          185                       # Transaction distribution
system.system_bus.trans_dist::ReadExReq          6679                       # Transaction distribution
system.system_bus.trans_dist::ReadExResp         6677                       # Transaction distribution
system.system_bus.trans_dist::ReadSharedReq         9112                       # Transaction distribution
system.system_bus.pkt_count_system.numa_caches_downward0.mem_side::system.numa_caches_upward1.cpu_side        25586                       # Packet count per connected master and slave (bytes)
system.system_bus.pkt_count_system.numa_caches_downward0.mem_side::total        25586                       # Packet count per connected master and slave (bytes)
system.system_bus.pkt_count_system.numa_caches_downward1.mem_side::system.numa_caches_upward0.cpu_side        20347                       # Packet count per connected master and slave (bytes)
system.system_bus.pkt_count_system.numa_caches_downward1.mem_side::total        20347                       # Packet count per connected master and slave (bytes)
system.system_bus.pkt_count::total              45933                       # Packet count per connected master and slave (bytes)
system.system_bus.pkt_size_system.numa_caches_downward0.mem_side::system.numa_caches_upward1.cpu_side       873920                       # Cumulative packet size per connected master and slave (bytes)
system.system_bus.pkt_size_system.numa_caches_downward0.mem_side::total       873920                       # Cumulative packet size per connected master and slave (bytes)
system.system_bus.pkt_size_system.numa_caches_downward1.mem_side::system.numa_caches_upward0.cpu_side       564107                       # Cumulative packet size per connected master and slave (bytes)
system.system_bus.pkt_size_system.numa_caches_downward1.mem_side::total       564107                       # Cumulative packet size per connected master and slave (bytes)
system.system_bus.pkt_size::total             1438027                       # Cumulative packet size per connected master and slave (bytes)
system.system_bus.snoops                        42793                       # Total snoops (count)
system.system_bus.snoop_fanout::samples         72276                       # Request fanout histogram
system.system_bus.snoop_fanout::mean         1.585658                       # Request fanout histogram
system.system_bus.snoop_fanout::stdev        0.492612                       # Request fanout histogram
system.system_bus.snoop_fanout::underflows            0      0.00%      0.00% # Request fanout histogram
system.system_bus.snoop_fanout::0                   0      0.00%      0.00% # Request fanout histogram
system.system_bus.snoop_fanout::1               29947     41.43%     41.43% # Request fanout histogram
system.system_bus.snoop_fanout::2               42329     58.57%    100.00% # Request fanout histogram
system.system_bus.snoop_fanout::overflows            0      0.00%    100.00% # Request fanout histogram
system.system_bus.snoop_fanout::min_value            1                       # Request fanout histogram
system.system_bus.snoop_fanout::max_value            2                       # Request fanout histogram
system.system_bus.snoop_fanout::total           72276                       # Request fanout histogram
system.tsunami.ethernet.descDMAReads                0                       # Number of descriptors the device read w/ DMA
system.tsunami.ethernet.descDMAWrites               0                       # Number of descriptors the device wrote w/ DMA
system.tsunami.ethernet.descDmaReadBytes            0                       # number of descriptor bytes read w/ DMA
system.tsunami.ethernet.descDmaWriteBytes            0                       # number of descriptor bytes write w/ DMA
system.tsunami.ethernet.postedSwi                   0                       # number of software interrupts posted to CPU
system.tsunami.ethernet.coalescedSwi              nan                       # average number of Swi's coalesced into each post
system.tsunami.ethernet.totalSwi                    0                       # total number of Swi written to ISR
system.tsunami.ethernet.postedRxIdle                0                       # number of rxIdle interrupts posted to CPU
system.tsunami.ethernet.coalescedRxIdle           nan                       # average number of RxIdle's coalesced into each post
system.tsunami.ethernet.totalRxIdle                 0                       # total number of RxIdle written to ISR
system.tsunami.ethernet.postedRxOk                  0                       # number of RxOk interrupts posted to CPU
system.tsunami.ethernet.coalescedRxOk             nan                       # average number of RxOk's coalesced into each post
system.tsunami.ethernet.totalRxOk                   0                       # total number of RxOk written to ISR
system.tsunami.ethernet.postedRxDesc                0                       # number of RxDesc interrupts posted to CPU
system.tsunami.ethernet.coalescedRxDesc           nan                       # average number of RxDesc's coalesced into each post
system.tsunami.ethernet.totalRxDesc                 0                       # total number of RxDesc written to ISR
system.tsunami.ethernet.postedTxOk                  0                       # number of TxOk interrupts posted to CPU
system.tsunami.ethernet.coalescedTxOk             nan                       # average number of TxOk's coalesced into each post
system.tsunami.ethernet.totalTxOk                   0                       # total number of TxOk written to ISR
system.tsunami.ethernet.postedTxIdle                0                       # number of TxIdle interrupts posted to CPU
system.tsunami.ethernet.coalescedTxIdle           nan                       # average number of TxIdle's coalesced into each post
system.tsunami.ethernet.totalTxIdle                 0                       # total number of TxIdle written to ISR
system.tsunami.ethernet.postedTxDesc                0                       # number of TxDesc interrupts posted to CPU
system.tsunami.ethernet.coalescedTxDesc           nan                       # average number of TxDesc's coalesced into each post
system.tsunami.ethernet.totalTxDesc                 0                       # total number of TxDesc written to ISR
system.tsunami.ethernet.postedRxOrn                 0                       # number of RxOrn posted to CPU
system.tsunami.ethernet.coalescedRxOrn            nan                       # average number of RxOrn's coalesced into each post
system.tsunami.ethernet.totalRxOrn                  0                       # total number of RxOrn written to ISR
system.tsunami.ethernet.coalescedTotal            nan                       # average number of interrupts coalesced into each post
system.tsunami.ethernet.postedInterrupts            0                       # number of posts to CPU
system.tsunami.ethernet.droppedPackets              0                       # number of packets dropped

---------- End Simulation Statistics   ----------
