Redirecting stdout to build/ALPHA_MOESI_CMP_directory/tests/opt/quick/se/00.hello/alpha/linux/simple-timing-ruby-MOESI_CMP_directory/simout
Redirecting stderr to build/ALPHA_MOESI_CMP_directory/tests/opt/quick/se/00.hello/alpha/linux/simple-timing-ruby-MOESI_CMP_directory/simerr
gem5 Simulator System.  http://gem5.org
gem5 is copyrighted software; use the --copyright option for details.

gem5 compiled Nov 15 2015 14:46:21
gem5 started Nov 15 2015 14:46:44
gem5 executing on ribera.cs.wisc.edu, pid 1174
command line: build/ALPHA_MOESI_CMP_directory/gem5.opt -d build/ALPHA_MOESI_CMP_directory/tests/opt/quick/se/00.hello/alpha/linux/simple-timing-ruby-MOESI_CMP_directory -re /scratch/nilay/GEM5/gem5/tests/run.py build/ALPHA_MOESI_CMP_directory/tests/opt/quick/se/00.hello/alpha/linux/simple-timing-ruby-MOESI_CMP_directory

Global frequency set at 1000000000 ticks per second
info: Entering event queue @ 0.  Starting simulation...
info: Increasing stack size by one page.
Hello world!
Exiting @ tick 108694 because target called exit()
