gem5 Simulator System.  http://gem5.org
gem5 is copyrighted software; use the --copyright option for details.

gem5 compiled Jan 22 2014 16:58:44
gem5 started Jan 22 2014 17:29:13
gem5 executing on u200540-lin
command line: build/POWER/gem5.opt -d build/POWER/tests/opt/quick/se/00.hello/power/linux/simple-atomic -re tests/run.py build/POWER/tests/opt/quick/se/00.hello/power/linux/simple-atomic
Global frequency set at 1000000000000 ticks per second
info: Entering event queue @ 0.  Starting simulation...
Hello world!
Exiting @ tick 2896000 because target called exit()
