gem5 Simulator System.  http://gem5.org
gem5 is copyrighted software; use the --copyright option for details.

gem5 compiled Dec 11 2012 16:28:23
gem5 started Dec 11 2012 16:28:36
gem5 executing on e103721-lin
command line: build/ARM/gem5.opt -d build/ARM/tests/opt/quick/fs/10.linux-boot/arm/linux/realview-switcheroo-atomic -re tests/run.py build/ARM/tests/opt/quick/fs/10.linux-boot/arm/linux/realview-switcheroo-atomic
Global frequency set at 1000000000000 ticks per second
info: kernel located at: /arm/scratch/sysexplr/dist/binaries/vmlinux.arm.smp.fb.2.6.38.8
info: Using bootloader at address 0x80000000
info: Entering event queue @ 0.  Starting simulation...
Switching CPUs...
Next CPU: AtomicSimpleCPU
switching cpus
info: Entering event queue @ 1000000000.  Starting simulation...
Switching CPUs...
Next CPU: AtomicSimpleCPU
switching cpus
info: Entering event queue @ 2000000000.  Starting simulation...
Switching CPUs...
Next CPU: AtomicSimpleCPU
switching cpus
info: Entering event queue @ 3000000000.  Starting simulation...
Switching CPUs...
Next CPU: AtomicSimpleCPU
switching cpus
info: Entering event queue @ 4000000000.  Starting simulation...
Switching CPUs...
Next CPU: AtomicSimpleCPU
switching cpus
info: Entering event queue @ 5000000000.  Starting simulation...
Switching CPUs...
Next CPU: AtomicSimpleCPU
info: Entering event queue @ 6000000000.  Starting simulation...
switching cpus
info: Entering event queue @ 6000001000.  Starting simulation...
Switching CPUs...
Next CPU: AtomicSimpleCPU
switching cpus
info: Entering event queue @ 7000001000.  Starting simulation...
Switching CPUs...
Next CPU: AtomicSimpleCPU
switching cpus
info: Entering event queue @ 8000001000.  Starting simulation...
Switching CPUs...
Next CPU: AtomicSimpleCPU
info: Entering event queue @ 9000001000.  Starting simulation...
switching cpus
info: Entering event queue @ 9000002500.  Starting simulation...
Switching CPUs...
Next CPU: AtomicSimpleCPU
switching cpus
info: Entering event queue @ 10000002500.  Starting simulation...
Switching CPUs...
Next CPU: AtomicSimpleCPU
switching cpus
info: Entering event queue @ 11000002500.  Starting simulation...
Switching CPUs...
Next CPU: AtomicSimpleCPU
switching cpus
info: Entering event queue @ 12000002500.  Starting simulation...
Switching CPUs...
Next CPU: AtomicSimpleCPU
switching cpus
info: Entering event queue @ 13000002500.  Starting simulation...
Switching CPUs...
Next CPU: AtomicSimpleCPU
switching cpus
info: Entering event queue @ 14000002500.  Starting simulation...
Switching CPUs...
Next CPU: AtomicSimpleCPU
switching cpus
info: Entering event queue @ 15000002500.  Starting simulation...
Switching CPUs...
Next CPU: AtomicSimpleCPU
switching cpus
info: Entering event queue @ 16000002500.  Starting simulation...
Switching CPUs...
Next CPU: AtomicSimpleCPU
switching cpus
info: Entering event queue @ 17000002500.  Starting simulation...
Switching CPUs...
Next CPU: AtomicSimpleCPU
switching cpus
info: Entering event queue @ 18000002500.  Starting simulation...
Switching CPUs...
Next CPU: AtomicSimpleCPU
switching cpus
info: Entering event queue @ 19000002500.  Starting simulation...
Switching CPUs...
Next CPU: AtomicSimpleCPU
switching cpus
info: Entering event queue @ 20000002500.  Starting simulation...
Switching CPUs...
Next CPU: AtomicSimpleCPU
switching cpus
info: Entering event queue @ 21000002500.  Starting simulation...
Switching CPUs...
Next CPU: AtomicSimpleCPU
switching cpus
info: Entering event queue @ 22000002500.  Starting simulation...
Switching CPUs...
Next CPU: AtomicSimpleCPU
switching cpus
info: Entering event queue @ 23000002500.  Starting simulation...
Switching CPUs...
Next CPU: AtomicSimpleCPU
switching cpus
info: Entering event queue @ 24000002500.  Starting simulation...
Switching CPUs...
Next CPU: AtomicSimpleCPU
switching cpus
info: Entering event queue @ 25000002500.  Starting simulation...
Switching CPUs...
Next CPU: AtomicSimpleCPU
switching cpus
info: Entering event queue @ 26000002500.  Starting simulation...
Switching CPUs...
Next CPU: AtomicSimpleCPU
switching cpus
info: Entering event queue @ 27000002500.  Starting simulation...
Switching CPUs...
Next CPU: AtomicSimpleCPU
switching cpus
info: Entering event queue @ 28000002500.  Starting simulation...
Switching CPUs...
Next CPU: AtomicSimpleCPU
switching cpus
info: Entering event queue @ 29000002500.  Starting simulation...
Switching CPUs...
Next CPU: AtomicSimpleCPU
switching cpus
info: Entering event queue @ 30000002500.  Starting simulation...
Switching CPUs...
Next CPU: AtomicSimpleCPU
switching cpus
info: Entering event queue @ 31000002500.  Starting simulation...
Switching CPUs...
Next CPU: AtomicSimpleCPU
switching cpus
info: Entering event queue @ 32000002500.  Starting simulation...
Switching CPUs...
Next CPU: AtomicSimpleCPU
switching cpus
info: Entering event queue @ 33000002500.  Starting simulation...
Switching CPUs...
Next CPU: AtomicSimpleCPU
switching cpus
info: Entering event queue @ 34000002500.  Starting simulation...
Switching CPUs...
Next CPU: AtomicSimpleCPU
switching cpus
info: Entering event queue @ 35000002500.  Starting simulation...
Switching CPUs...
Next CPU: AtomicSimpleCPU
switching cpus
info: Entering event queue @ 36000002500.  Starting simulation...
Switching CPUs...
Next CPU: AtomicSimpleCPU
switching cpus
info: Entering event queue @ 37000002500.  Starting simulation...
Switching CPUs...
Next CPU: AtomicSimpleCPU
switching cpus
info: Entering event queue @ 38000002500.  Starting simulation...
Switching CPUs...
Next CPU: AtomicSimpleCPU
switching cpus
info: Entering event queue @ 39000002500.  Starting simulation...
Switching CPUs...
Next CPU: AtomicSimpleCPU
switching cpus
info: Entering event queue @ 40000002500.  Starting simulation...
Switching CPUs...
Next CPU: AtomicSimpleCPU
switching cpus
info: Entering event queue @ 41000002500.  Starting simulation...
Switching CPUs...
Next CPU: AtomicSimpleCPU
switching cpus
info: Entering event queue @ 42000002500.  Starting simulation...
Switching CPUs...
Next CPU: AtomicSimpleCPU
switching cpus
info: Entering event queue @ 43000002500.  Starting simulation...
Switching CPUs...
Next CPU: AtomicSimpleCPU
info: Entering event queue @ 44000002500.  Starting simulation...
switching cpus
info: Entering event queue @ 44000004000.  Starting simulation...
Switching CPUs...
Next CPU: AtomicSimpleCPU
switching cpus
info: Entering event queue @ 45000004000.  Starting simulation...
Switching CPUs...
Next CPU: AtomicSimpleCPU
switching cpus
info: Entering event queue @ 46000004000.  Starting simulation...
Switching CPUs...
Next CPU: AtomicSimpleCPU
switching cpus
info: Entering event queue @ 47000004000.  Starting simulation...
Switching CPUs...
Next CPU: AtomicSimpleCPU
switching cpus
info: Entering event queue @ 48000004000.  Starting simulation...
Switching CPUs...
Next CPU: AtomicSimpleCPU
switching cpus
info: Entering event queue @ 49000004000.  Starting simulation...
Switching CPUs...
Next CPU: AtomicSimpleCPU
switching cpus
info: Entering event queue @ 50000004000.  Starting simulation...
Switching CPUs...
Next CPU: AtomicSimpleCPU
switching cpus
info: Entering event queue @ 51000004000.  Starting simulation...
Switching CPUs...
Next CPU: AtomicSimpleCPU
switching cpus
info: Entering event queue @ 52000004000.  Starting simulation...
Switching CPUs...
Next CPU: AtomicSimpleCPU
switching cpus
info: Entering event queue @ 53000004000.  Starting simulation...
Switching CPUs...
Next CPU: AtomicSimpleCPU
switching cpus
info: Entering event queue @ 54000004000.  Starting simulation...
Switching CPUs...
Next CPU: AtomicSimpleCPU
switching cpus
info: Entering event queue @ 55000004000.  Starting simulation...
Switching CPUs...
Next CPU: AtomicSimpleCPU
switching cpus
info: Entering event queue @ 56000004000.  Starting simulation...
Switching CPUs...
Next CPU: AtomicSimpleCPU
switching cpus
info: Entering event queue @ 57000004000.  Starting simulation...
Switching CPUs...
Next CPU: AtomicSimpleCPU
switching cpus
info: Entering event queue @ 58000004000.  Starting simulation...
Switching CPUs...
Next CPU: AtomicSimpleCPU
switching cpus
info: Entering event queue @ 59000004000.  Starting simulation...
Switching CPUs...
Next CPU: AtomicSimpleCPU
switching cpus
info: Entering event queue @ 60000004000.  Starting simulation...
Switching CPUs...
Next CPU: AtomicSimpleCPU
switching cpus
info: Entering event queue @ 61000004000.  Starting simulation...
Switching CPUs...
Next CPU: AtomicSimpleCPU
switching cpus
info: Entering event queue @ 62000004000.  Starting simulation...
Switching CPUs...
Next CPU: AtomicSimpleCPU
switching cpus
info: Entering event queue @ 63000004000.  Starting simulation...
Switching CPUs...
Next CPU: AtomicSimpleCPU
switching cpus
info: Entering event queue @ 64000004000.  Starting simulation...
Switching CPUs...
Next CPU: AtomicSimpleCPU
switching cpus
info: Entering event queue @ 65000004000.  Starting simulation...
Switching CPUs...
Next CPU: AtomicSimpleCPU
switching cpus
info: Entering event queue @ 66000004000.  Starting simulation...
Switching CPUs...
Next CPU: AtomicSimpleCPU
switching cpus
info: Entering event queue @ 67000004000.  Starting simulation...
Switching CPUs...
Next CPU: AtomicSimpleCPU
switching cpus
info: Entering event queue @ 68000004000.  Starting simulation...
Switching CPUs...
Next CPU: AtomicSimpleCPU
switching cpus
info: Entering event queue @ 69000004000.  Starting simulation...
Switching CPUs...
Next CPU: AtomicSimpleCPU
switching cpus
info: Entering event queue @ 70000004000.  Starting simulation...
Switching CPUs...
Next CPU: AtomicSimpleCPU
switching cpus
info: Entering event queue @ 71000004000.  Starting simulation...
Switching CPUs...
Next CPU: AtomicSimpleCPU
switching cpus
info: Entering event queue @ 72000004000.  Starting simulation...
Switching CPUs...
Next CPU: AtomicSimpleCPU
switching cpus
info: Entering event queue @ 73000004000.  Starting simulation...
Switching CPUs...
Next CPU: AtomicSimpleCPU
switching cpus
info: Entering event queue @ 74000004000.  Starting simulation...
Switching CPUs...
Next CPU: AtomicSimpleCPU
switching cpus
info: Entering event queue @ 75000004000.  Starting simulation...
Switching CPUs...
Next CPU: AtomicSimpleCPU
switching cpus
info: Entering event queue @ 76000004000.  Starting simulation...
Switching CPUs...
Next CPU: AtomicSimpleCPU
switching cpus
info: Entering event queue @ 77000004000.  Starting simulation...
Switching CPUs...
Next CPU: AtomicSimpleCPU
switching cpus
info: Entering event queue @ 78000004000.  Starting simulation...
Switching CPUs...
Next CPU: AtomicSimpleCPU
switching cpus
info: Entering event queue @ 79000004000.  Starting simulation...
Switching CPUs...
Next CPU: AtomicSimpleCPU
switching cpus
info: Entering event queue @ 80000004000.  Starting simulation...
Switching CPUs...
Next CPU: AtomicSimpleCPU
switching cpus
info: Entering event queue @ 81000004000.  Starting simulation...
Switching CPUs...
Next CPU: AtomicSimpleCPU
switching cpus
info: Entering event queue @ 82000004000.  Starting simulation...
Switching CPUs...
Next CPU: AtomicSimpleCPU
switching cpus
info: Entering event queue @ 83000004000.  Starting simulation...
Switching CPUs...
Next CPU: AtomicSimpleCPU
switching cpus
info: Entering event queue @ 84000004000.  Starting simulation...
Switching CPUs...
Next CPU: AtomicSimpleCPU
switching cpus
info: Entering event queue @ 85000004000.  Starting simulation...
Switching CPUs...
Next CPU: AtomicSimpleCPU
switching cpus
info: Entering event queue @ 86000004000.  Starting simulation...
Switching CPUs...
Next CPU: AtomicSimpleCPU
switching cpus
info: Entering event queue @ 87000004000.  Starting simulation...
Switching CPUs...
Next CPU: AtomicSimpleCPU
switching cpus
info: Entering event queue @ 88000004000.  Starting simulation...
Switching CPUs...
Next CPU: AtomicSimpleCPU
switching cpus
info: Entering event queue @ 89000004000.  Starting simulation...
Switching CPUs...
Next CPU: AtomicSimpleCPU
switching cpus
info: Entering event queue @ 90000004000.  Starting simulation...
Switching CPUs...
Next CPU: AtomicSimpleCPU
switching cpus
info: Entering event queue @ 91000004000.  Starting simulation...
Switching CPUs...
Next CPU: AtomicSimpleCPU
switching cpus
info: Entering event queue @ 92000004000.  Starting simulation...
Switching CPUs...
Next CPU: AtomicSimpleCPU
switching cpus
info: Entering event queue @ 93000004000.  Starting simulation...
Switching CPUs...
Next CPU: AtomicSimpleCPU
switching cpus
info: Entering event queue @ 94000004000.  Starting simulation...
Switching CPUs...
Next CPU: AtomicSimpleCPU
switching cpus
info: Entering event queue @ 95000004000.  Starting simulation...
Switching CPUs...
Next CPU: AtomicSimpleCPU
switching cpus
info: Entering event queue @ 96000004000.  Starting simulation...
Switching CPUs...
Next CPU: AtomicSimpleCPU
switching cpus
info: Entering event queue @ 97000004000.  Starting simulation...
Switching CPUs...
Next CPU: AtomicSimpleCPU
switching cpus
info: Entering event queue @ 98000004000.  Starting simulation...
Switching CPUs...
Next CPU: AtomicSimpleCPU
switching cpus
info: Entering event queue @ 99000004000.  Starting simulation...
Switching CPUs...
Next CPU: AtomicSimpleCPU
switching cpus
info: Entering event queue @ 100000004000.  Starting simulation...
Switching CPUs...
Next CPU: AtomicSimpleCPU
switching cpus
info: Entering event queue @ 101000004000.  Starting simulation...
Switching CPUs...
Next CPU: AtomicSimpleCPU
switching cpus
info: Entering event queue @ 102000004000.  Starting simulation...
Switching CPUs...
Next CPU: AtomicSimpleCPU
switching cpus
info: Entering event queue @ 103000004000.  Starting simulation...
Switching CPUs...
Next CPU: AtomicSimpleCPU
switching cpus
info: Entering event queue @ 104000004000.  Starting simulation...
Switching CPUs...
Next CPU: AtomicSimpleCPU
switching cpus
info: Entering event queue @ 105000004000.  Starting simulation...
Switching CPUs...
Next CPU: AtomicSimpleCPU
switching cpus
info: Entering event queue @ 106000004000.  Starting simulation...
Switching CPUs...
Next CPU: AtomicSimpleCPU
switching cpus
info: Entering event queue @ 107000004000.  Starting simulation...
Switching CPUs...
Next CPU: AtomicSimpleCPU
switching cpus
info: Entering event queue @ 108000004000.  Starting simulation...
Switching CPUs...
Next CPU: AtomicSimpleCPU
switching cpus
info: Entering event queue @ 109000004000.  Starting simulation...
Switching CPUs...
Next CPU: AtomicSimpleCPU
switching cpus
info: Entering event queue @ 110000004000.  Starting simulation...
Switching CPUs...
Next CPU: AtomicSimpleCPU
switching cpus
info: Entering event queue @ 111000004000.  Starting simulation...
Switching CPUs...
Next CPU: AtomicSimpleCPU
switching cpus
info: Entering event queue @ 112000004000.  Starting simulation...
Switching CPUs...
Next CPU: AtomicSimpleCPU
switching cpus
info: Entering event queue @ 113000004000.  Starting simulation...
Switching CPUs...
Next CPU: AtomicSimpleCPU
switching cpus
info: Entering event queue @ 114000004000.  Starting simulation...
Switching CPUs...
Next CPU: AtomicSimpleCPU
switching cpus
info: Entering event queue @ 115000004000.  Starting simulation...
Switching CPUs...
Next CPU: AtomicSimpleCPU
switching cpus
info: Entering event queue @ 116000004000.  Starting simulation...
Switching CPUs...
Next CPU: AtomicSimpleCPU
switching cpus
info: Entering event queue @ 117000004000.  Starting simulation...
Switching CPUs...
Next CPU: AtomicSimpleCPU
switching cpus
info: Entering event queue @ 118000004000.  Starting simulation...
Switching CPUs...
Next CPU: AtomicSimpleCPU
switching cpus
info: Entering event queue @ 119000004000.  Starting simulation...
Switching CPUs...
Next CPU: AtomicSimpleCPU
switching cpus
info: Entering event queue @ 120000004000.  Starting simulation...
Switching CPUs...
Next CPU: AtomicSimpleCPU
switching cpus
info: Entering event queue @ 121000004000.  Starting simulation...
Switching CPUs...
Next CPU: AtomicSimpleCPU
switching cpus
info: Entering event queue @ 122000004000.  Starting simulation...
Switching CPUs...
Next CPU: AtomicSimpleCPU
switching cpus
info: Entering event queue @ 123000004000.  Starting simulation...
Switching CPUs...
Next CPU: AtomicSimpleCPU
switching cpus
info: Entering event queue @ 124000004000.  Starting simulation...
Switching CPUs...
Next CPU: AtomicSimpleCPU
switching cpus
info: Entering event queue @ 125000004000.  Starting simulation...
Switching CPUs...
Next CPU: AtomicSimpleCPU
switching cpus
info: Entering event queue @ 126000004000.  Starting simulation...
Switching CPUs...
Next CPU: AtomicSimpleCPU
switching cpus
info: Entering event queue @ 127000004000.  Starting simulation...
Switching CPUs...
Next CPU: AtomicSimpleCPU
switching cpus
info: Entering event queue @ 128000004000.  Starting simulation...
Switching CPUs...
Next CPU: AtomicSimpleCPU
switching cpus
info: Entering event queue @ 129000004000.  Starting simulation...
Switching CPUs...
Next CPU: AtomicSimpleCPU
switching cpus
info: Entering event queue @ 130000004000.  Starting simulation...
Switching CPUs...
Next CPU: AtomicSimpleCPU
switching cpus
info: Entering event queue @ 131000004000.  Starting simulation...
Switching CPUs...
Next CPU: AtomicSimpleCPU
switching cpus
info: Entering event queue @ 132000004000.  Starting simulation...
Switching CPUs...
Next CPU: AtomicSimpleCPU
switching cpus
info: Entering event queue @ 133000004000.  Starting simulation...
Switching CPUs...
Next CPU: AtomicSimpleCPU
switching cpus
info: Entering event queue @ 134000004000.  Starting simulation...
Switching CPUs...
Next CPU: AtomicSimpleCPU
switching cpus
info: Entering event queue @ 135000004000.  Starting simulation...
Switching CPUs...
Next CPU: AtomicSimpleCPU
switching cpus
info: Entering event queue @ 136000004000.  Starting simulation...
Switching CPUs...
Next CPU: AtomicSimpleCPU
switching cpus
info: Entering event queue @ 137000004000.  Starting simulation...
Switching CPUs...
Next CPU: AtomicSimpleCPU
switching cpus
info: Entering event queue @ 138000004000.  Starting simulation...
Switching CPUs...
Next CPU: AtomicSimpleCPU
switching cpus
info: Entering event queue @ 139000004000.  Starting simulation...
Switching CPUs...
Next CPU: AtomicSimpleCPU
switching cpus
info: Entering event queue @ 140000004000.  Starting simulation...
Switching CPUs...
Next CPU: AtomicSimpleCPU
switching cpus
info: Entering event queue @ 141000004000.  Starting simulation...
Switching CPUs...
Next CPU: AtomicSimpleCPU
switching cpus
info: Entering event queue @ 142000004000.  Starting simulation...
Switching CPUs...
Next CPU: AtomicSimpleCPU
switching cpus
info: Entering event queue @ 143000004000.  Starting simulation...
Switching CPUs...
Next CPU: AtomicSimpleCPU
switching cpus
info: Entering event queue @ 144000004000.  Starting simulation...
Switching CPUs...
Next CPU: AtomicSimpleCPU
switching cpus
info: Entering event queue @ 145000004000.  Starting simulation...
Switching CPUs...
Next CPU: AtomicSimpleCPU
switching cpus
info: Entering event queue @ 146000004000.  Starting simulation...
Switching CPUs...
Next CPU: AtomicSimpleCPU
switching cpus
info: Entering event queue @ 147000004000.  Starting simulation...
Switching CPUs...
Next CPU: AtomicSimpleCPU
switching cpus
info: Entering event queue @ 148000004000.  Starting simulation...
Switching CPUs...
Next CPU: AtomicSimpleCPU
switching cpus
info: Entering event queue @ 149000004000.  Starting simulation...
Switching CPUs...
Next CPU: AtomicSimpleCPU
switching cpus
info: Entering event queue @ 150000004000.  Starting simulation...
Switching CPUs...
Next CPU: AtomicSimpleCPU
switching cpus
info: Entering event queue @ 151000004000.  Starting simulation...
Switching CPUs...
Next CPU: AtomicSimpleCPU
switching cpus
info: Entering event queue @ 152000004000.  Starting simulation...
Switching CPUs...
Next CPU: AtomicSimpleCPU
switching cpus
info: Entering event queue @ 153000004000.  Starting simulation...
Switching CPUs...
Next CPU: AtomicSimpleCPU
switching cpus
info: Entering event queue @ 154000004000.  Starting simulation...
Switching CPUs...
Next CPU: AtomicSimpleCPU
switching cpus
info: Entering event queue @ 155000004000.  Starting simulation...
Switching CPUs...
Next CPU: AtomicSimpleCPU
switching cpus
info: Entering event queue @ 156000004000.  Starting simulation...
Switching CPUs...
Next CPU: AtomicSimpleCPU
switching cpus
info: Entering event queue @ 157000004000.  Starting simulation...
Switching CPUs...
Next CPU: AtomicSimpleCPU
switching cpus
info: Entering event queue @ 158000004000.  Starting simulation...
Switching CPUs...
Next CPU: AtomicSimpleCPU
switching cpus
info: Entering event queue @ 159000004000.  Starting simulation...
Switching CPUs...
Next CPU: AtomicSimpleCPU
switching cpus
info: Entering event queue @ 160000004000.  Starting simulation...
Switching CPUs...
Next CPU: AtomicSimpleCPU
switching cpus
info: Entering event queue @ 161000004000.  Starting simulation...
Switching CPUs...
Next CPU: AtomicSimpleCPU
switching cpus
info: Entering event queue @ 162000004000.  Starting simulation...
Switching CPUs...
Next CPU: AtomicSimpleCPU
switching cpus
info: Entering event queue @ 163000004000.  Starting simulation...
Switching CPUs...
Next CPU: AtomicSimpleCPU
switching cpus
info: Entering event queue @ 164000004000.  Starting simulation...
Switching CPUs...
Next CPU: AtomicSimpleCPU
switching cpus
info: Entering event queue @ 165000004000.  Starting simulation...
Switching CPUs...
Next CPU: AtomicSimpleCPU
switching cpus
info: Entering event queue @ 166000004000.  Starting simulation...
Switching CPUs...
Next CPU: AtomicSimpleCPU
switching cpus
info: Entering event queue @ 167000004000.  Starting simulation...
Switching CPUs...
Next CPU: AtomicSimpleCPU
switching cpus
info: Entering event queue @ 168000004000.  Starting simulation...
Switching CPUs...
Next CPU: AtomicSimpleCPU
switching cpus
info: Entering event queue @ 169000004000.  Starting simulation...
Switching CPUs...
Next CPU: AtomicSimpleCPU
switching cpus
info: Entering event queue @ 170000004000.  Starting simulation...
Switching CPUs...
Next CPU: AtomicSimpleCPU
switching cpus
info: Entering event queue @ 171000004000.  Starting simulation...
Switching CPUs...
Next CPU: AtomicSimpleCPU
switching cpus
info: Entering event queue @ 172000004000.  Starting simulation...
Switching CPUs...
Next CPU: AtomicSimpleCPU
switching cpus
info: Entering event queue @ 173000004000.  Starting simulation...
Switching CPUs...
Next CPU: AtomicSimpleCPU
switching cpus
info: Entering event queue @ 174000004000.  Starting simulation...
Switching CPUs...
Next CPU: AtomicSimpleCPU
switching cpus
info: Entering event queue @ 175000004000.  Starting simulation...
Switching CPUs...
Next CPU: AtomicSimpleCPU
switching cpus
info: Entering event queue @ 176000004000.  Starting simulation...
Switching CPUs...
Next CPU: AtomicSimpleCPU
switching cpus
info: Entering event queue @ 177000004000.  Starting simulation...
Switching CPUs...
Next CPU: AtomicSimpleCPU
switching cpus
info: Entering event queue @ 178000004000.  Starting simulation...
Switching CPUs...
Next CPU: AtomicSimpleCPU
switching cpus
info: Entering event queue @ 179000004000.  Starting simulation...
Switching CPUs...
Next CPU: AtomicSimpleCPU
switching cpus
info: Entering event queue @ 180000004000.  Starting simulation...
Switching CPUs...
Next CPU: AtomicSimpleCPU
switching cpus
info: Entering event queue @ 181000004000.  Starting simulation...
Switching CPUs...
Next CPU: AtomicSimpleCPU
switching cpus
info: Entering event queue @ 182000004000.  Starting simulation...
Switching CPUs...
Next CPU: AtomicSimpleCPU
switching cpus
info: Entering event queue @ 183000004000.  Starting simulation...
Switching CPUs...
Next CPU: AtomicSimpleCPU
switching cpus
info: Entering event queue @ 184000004000.  Starting simulation...
Switching CPUs...
Next CPU: AtomicSimpleCPU
switching cpus
info: Entering event queue @ 185000004000.  Starting simulation...
Switching CPUs...
Next CPU: AtomicSimpleCPU
switching cpus
info: Entering event queue @ 186000004000.  Starting simulation...
Switching CPUs...
Next CPU: AtomicSimpleCPU
switching cpus
info: Entering event queue @ 187000004000.  Starting simulation...
Switching CPUs...
Next CPU: AtomicSimpleCPU
switching cpus
info: Entering event queue @ 188000004000.  Starting simulation...
Switching CPUs...
Next CPU: AtomicSimpleCPU
switching cpus
info: Entering event queue @ 189000004000.  Starting simulation...
Switching CPUs...
Next CPU: AtomicSimpleCPU
switching cpus
info: Entering event queue @ 190000004000.  Starting simulation...
Switching CPUs...
Next CPU: AtomicSimpleCPU
switching cpus
info: Entering event queue @ 191000004000.  Starting simulation...
Switching CPUs...
Next CPU: AtomicSimpleCPU
switching cpus
info: Entering event queue @ 192000004000.  Starting simulation...
Switching CPUs...
Next CPU: AtomicSimpleCPU
switching cpus
info: Entering event queue @ 193000004000.  Starting simulation...
Switching CPUs...
Next CPU: AtomicSimpleCPU
switching cpus
info: Entering event queue @ 194000004000.  Starting simulation...
Switching CPUs...
Next CPU: AtomicSimpleCPU
switching cpus
info: Entering event queue @ 195000004000.  Starting simulation...
Switching CPUs...
Next CPU: AtomicSimpleCPU
switching cpus
info: Entering event queue @ 196000004000.  Starting simulation...
Switching CPUs...
Next CPU: AtomicSimpleCPU
switching cpus
info: Entering event queue @ 197000004000.  Starting simulation...
Switching CPUs...
Next CPU: AtomicSimpleCPU
switching cpus
info: Entering event queue @ 198000004000.  Starting simulation...
Switching CPUs...
Next CPU: AtomicSimpleCPU
switching cpus
info: Entering event queue @ 199000004000.  Starting simulation...
Switching CPUs...
Next CPU: AtomicSimpleCPU
switching cpus
info: Entering event queue @ 200000004000.  Starting simulation...
Switching CPUs...
Next CPU: AtomicSimpleCPU
switching cpus
info: Entering event queue @ 201000004000.  Starting simulation...
Switching CPUs...
Next CPU: AtomicSimpleCPU
switching cpus
info: Entering event queue @ 202000004000.  Starting simulation...
Switching CPUs...
Next CPU: AtomicSimpleCPU
switching cpus
info: Entering event queue @ 203000004000.  Starting simulation...
Switching CPUs...
Next CPU: AtomicSimpleCPU
switching cpus
info: Entering event queue @ 204000004000.  Starting simulation...
Switching CPUs...
Next CPU: AtomicSimpleCPU
switching cpus
info: Entering event queue @ 205000004000.  Starting simulation...
Switching CPUs...
Next CPU: AtomicSimpleCPU
switching cpus
info: Entering event queue @ 206000004000.  Starting simulation...
Switching CPUs...
Next CPU: AtomicSimpleCPU
switching cpus
info: Entering event queue @ 207000004000.  Starting simulation...
Switching CPUs...
Next CPU: AtomicSimpleCPU
switching cpus
info: Entering event queue @ 208000004000.  Starting simulation...
Switching CPUs...
Next CPU: AtomicSimpleCPU
switching cpus
info: Entering event queue @ 209000004000.  Starting simulation...
Switching CPUs...
Next CPU: AtomicSimpleCPU
switching cpus
info: Entering event queue @ 210000004000.  Starting simulation...
Switching CPUs...
Next CPU: AtomicSimpleCPU
switching cpus
info: Entering event queue @ 211000004000.  Starting simulation...
Switching CPUs...
Next CPU: AtomicSimpleCPU
switching cpus
info: Entering event queue @ 212000004000.  Starting simulation...
Switching CPUs...
Next CPU: AtomicSimpleCPU
switching cpus
info: Entering event queue @ 213000004000.  Starting simulation...
Switching CPUs...
Next CPU: AtomicSimpleCPU
switching cpus
info: Entering event queue @ 214000004000.  Starting simulation...
Switching CPUs...
Next CPU: AtomicSimpleCPU
switching cpus
info: Entering event queue @ 215000004000.  Starting simulation...
Switching CPUs...
Next CPU: AtomicSimpleCPU
switching cpus
info: Entering event queue @ 216000004000.  Starting simulation...
Switching CPUs...
Next CPU: AtomicSimpleCPU
switching cpus
info: Entering event queue @ 217000004000.  Starting simulation...
Switching CPUs...
Next CPU: AtomicSimpleCPU
switching cpus
info: Entering event queue @ 218000004000.  Starting simulation...
Switching CPUs...
Next CPU: AtomicSimpleCPU
switching cpus
info: Entering event queue @ 219000004000.  Starting simulation...
Switching CPUs...
Next CPU: AtomicSimpleCPU
switching cpus
info: Entering event queue @ 220000004000.  Starting simulation...
Switching CPUs...
Next CPU: AtomicSimpleCPU
switching cpus
info: Entering event queue @ 221000004000.  Starting simulation...
Switching CPUs...
Next CPU: AtomicSimpleCPU
switching cpus
info: Entering event queue @ 222000004000.  Starting simulation...
Switching CPUs...
Next CPU: AtomicSimpleCPU
switching cpus
info: Entering event queue @ 223000004000.  Starting simulation...
Switching CPUs...
Next CPU: AtomicSimpleCPU
switching cpus
info: Entering event queue @ 224000004000.  Starting simulation...
Switching CPUs...
Next CPU: AtomicSimpleCPU
switching cpus
info: Entering event queue @ 225000004000.  Starting simulation...
Switching CPUs...
Next CPU: AtomicSimpleCPU
switching cpus
info: Entering event queue @ 226000004000.  Starting simulation...
Switching CPUs...
Next CPU: AtomicSimpleCPU
switching cpus
info: Entering event queue @ 227000004000.  Starting simulation...
Switching CPUs...
Next CPU: AtomicSimpleCPU
switching cpus
info: Entering event queue @ 228000004000.  Starting simulation...
Switching CPUs...
Next CPU: AtomicSimpleCPU
switching cpus
info: Entering event queue @ 229000004000.  Starting simulation...
Switching CPUs...
Next CPU: AtomicSimpleCPU
switching cpus
info: Entering event queue @ 230000004000.  Starting simulation...
Switching CPUs...
Next CPU: AtomicSimpleCPU
switching cpus
info: Entering event queue @ 231000004000.  Starting simulation...
Switching CPUs...
Next CPU: AtomicSimpleCPU
switching cpus
info: Entering event queue @ 232000004000.  Starting simulation...
Switching CPUs...
Next CPU: AtomicSimpleCPU
switching cpus
info: Entering event queue @ 233000004000.  Starting simulation...
Switching CPUs...
Next CPU: AtomicSimpleCPU
switching cpus
info: Entering event queue @ 234000004000.  Starting simulation...
Switching CPUs...
Next CPU: AtomicSimpleCPU
switching cpus
info: Entering event queue @ 235000004000.  Starting simulation...
Switching CPUs...
Next CPU: AtomicSimpleCPU
switching cpus
info: Entering event queue @ 236000004000.  Starting simulation...
Switching CPUs...
Next CPU: AtomicSimpleCPU
switching cpus
info: Entering event queue @ 237000004000.  Starting simulation...
Switching CPUs...
Next CPU: AtomicSimpleCPU
switching cpus
info: Entering event queue @ 238000004000.  Starting simulation...
Switching CPUs...
Next CPU: AtomicSimpleCPU
switching cpus
info: Entering event queue @ 239000004000.  Starting simulation...
Switching CPUs...
Next CPU: AtomicSimpleCPU
switching cpus
info: Entering event queue @ 240000004000.  Starting simulation...
Switching CPUs...
Next CPU: AtomicSimpleCPU
switching cpus
info: Entering event queue @ 241000004000.  Starting simulation...
Switching CPUs...
Next CPU: AtomicSimpleCPU
switching cpus
info: Entering event queue @ 242000004000.  Starting simulation...
Switching CPUs...
Next CPU: AtomicSimpleCPU
switching cpus
info: Entering event queue @ 243000004000.  Starting simulation...
Switching CPUs...
Next CPU: AtomicSimpleCPU
switching cpus
info: Entering event queue @ 244000004000.  Starting simulation...
Switching CPUs...
Next CPU: AtomicSimpleCPU
switching cpus
info: Entering event queue @ 245000004000.  Starting simulation...
Switching CPUs...
Next CPU: AtomicSimpleCPU
switching cpus
info: Entering event queue @ 246000004000.  Starting simulation...
Switching CPUs...
Next CPU: AtomicSimpleCPU
switching cpus
info: Entering event queue @ 247000004000.  Starting simulation...
Switching CPUs...
Next CPU: AtomicSimpleCPU
switching cpus
info: Entering event queue @ 248000004000.  Starting simulation...
Switching CPUs...
Next CPU: AtomicSimpleCPU
switching cpus
info: Entering event queue @ 249000004000.  Starting simulation...
Switching CPUs...
Next CPU: AtomicSimpleCPU
switching cpus
info: Entering event queue @ 250000004000.  Starting simulation...
Switching CPUs...
Next CPU: AtomicSimpleCPU
switching cpus
info: Entering event queue @ 251000004000.  Starting simulation...
Switching CPUs...
Next CPU: AtomicSimpleCPU
switching cpus
info: Entering event queue @ 252000004000.  Starting simulation...
Switching CPUs...
Next CPU: AtomicSimpleCPU
switching cpus
info: Entering event queue @ 253000004000.  Starting simulation...
Switching CPUs...
Next CPU: AtomicSimpleCPU
switching cpus
info: Entering event queue @ 254000004000.  Starting simulation...
Switching CPUs...
Next CPU: AtomicSimpleCPU
switching cpus
info: Entering event queue @ 255000004000.  Starting simulation...
Switching CPUs...
Next CPU: AtomicSimpleCPU
switching cpus
info: Entering event queue @ 256000004000.  Starting simulation...
Switching CPUs...
Next CPU: AtomicSimpleCPU
switching cpus
info: Entering event queue @ 257000004000.  Starting simulation...
Switching CPUs...
Next CPU: AtomicSimpleCPU
switching cpus
info: Entering event queue @ 258000004000.  Starting simulation...
Switching CPUs...
Next CPU: AtomicSimpleCPU
switching cpus
info: Entering event queue @ 259000004000.  Starting simulation...
Switching CPUs...
Next CPU: AtomicSimpleCPU
switching cpus
info: Entering event queue @ 260000004000.  Starting simulation...
Switching CPUs...
Next CPU: AtomicSimpleCPU
switching cpus
info: Entering event queue @ 261000004000.  Starting simulation...
Switching CPUs...
Next CPU: AtomicSimpleCPU
switching cpus
info: Entering event queue @ 262000004000.  Starting simulation...
Switching CPUs...
Next CPU: AtomicSimpleCPU
switching cpus
info: Entering event queue @ 263000004000.  Starting simulation...
Switching CPUs...
Next CPU: AtomicSimpleCPU
switching cpus
info: Entering event queue @ 264000004000.  Starting simulation...
Switching CPUs...
Next CPU: AtomicSimpleCPU
switching cpus
info: Entering event queue @ 265000004000.  Starting simulation...
Switching CPUs...
Next CPU: AtomicSimpleCPU
switching cpus
info: Entering event queue @ 266000004000.  Starting simulation...
Switching CPUs...
Next CPU: AtomicSimpleCPU
switching cpus
info: Entering event queue @ 267000004000.  Starting simulation...
Switching CPUs...
Next CPU: AtomicSimpleCPU
switching cpus
info: Entering event queue @ 268000004000.  Starting simulation...
Switching CPUs...
Next CPU: AtomicSimpleCPU
switching cpus
info: Entering event queue @ 269000004000.  Starting simulation...
Switching CPUs...
Next CPU: AtomicSimpleCPU
switching cpus
info: Entering event queue @ 270000004000.  Starting simulation...
Switching CPUs...
Next CPU: AtomicSimpleCPU
switching cpus
info: Entering event queue @ 271000004000.  Starting simulation...
Switching CPUs...
Next CPU: AtomicSimpleCPU
switching cpus
info: Entering event queue @ 272000004000.  Starting simulation...
Switching CPUs...
Next CPU: AtomicSimpleCPU
switching cpus
info: Entering event queue @ 273000004000.  Starting simulation...
Switching CPUs...
Next CPU: AtomicSimpleCPU
switching cpus
info: Entering event queue @ 274000004000.  Starting simulation...
Switching CPUs...
Next CPU: AtomicSimpleCPU
switching cpus
info: Entering event queue @ 275000004000.  Starting simulation...
Switching CPUs...
Next CPU: AtomicSimpleCPU
switching cpus
info: Entering event queue @ 276000004000.  Starting simulation...
Switching CPUs...
Next CPU: AtomicSimpleCPU
switching cpus
info: Entering event queue @ 277000004000.  Starting simulation...
Switching CPUs...
Next CPU: AtomicSimpleCPU
switching cpus
info: Entering event queue @ 278000004000.  Starting simulation...
Switching CPUs...
Next CPU: AtomicSimpleCPU
switching cpus
info: Entering event queue @ 279000004000.  Starting simulation...
Switching CPUs...
Next CPU: AtomicSimpleCPU
switching cpus
info: Entering event queue @ 280000004000.  Starting simulation...
Switching CPUs...
Next CPU: AtomicSimpleCPU
switching cpus
info: Entering event queue @ 281000004000.  Starting simulation...
Switching CPUs...
Next CPU: AtomicSimpleCPU
switching cpus
info: Entering event queue @ 282000004000.  Starting simulation...
Switching CPUs...
Next CPU: AtomicSimpleCPU
switching cpus
info: Entering event queue @ 283000004000.  Starting simulation...
Switching CPUs...
Next CPU: AtomicSimpleCPU
switching cpus
info: Entering event queue @ 284000004000.  Starting simulation...
Switching CPUs...
Next CPU: AtomicSimpleCPU
switching cpus
info: Entering event queue @ 285000004000.  Starting simulation...
Switching CPUs...
Next CPU: AtomicSimpleCPU
switching cpus
info: Entering event queue @ 286000004000.  Starting simulation...
Switching CPUs...
Next CPU: AtomicSimpleCPU
switching cpus
info: Entering event queue @ 287000004000.  Starting simulation...
Switching CPUs...
Next CPU: AtomicSimpleCPU
switching cpus
info: Entering event queue @ 288000004000.  Starting simulation...
Switching CPUs...
Next CPU: AtomicSimpleCPU
switching cpus
info: Entering event queue @ 289000004000.  Starting simulation...
Switching CPUs...
Next CPU: AtomicSimpleCPU
switching cpus
info: Entering event queue @ 290000004000.  Starting simulation...
Switching CPUs...
Next CPU: AtomicSimpleCPU
switching cpus
info: Entering event queue @ 291000004000.  Starting simulation...
Switching CPUs...
Next CPU: AtomicSimpleCPU
switching cpus
info: Entering event queue @ 292000004000.  Starting simulation...
Switching CPUs...
Next CPU: AtomicSimpleCPU
switching cpus
info: Entering event queue @ 293000004000.  Starting simulation...
Switching CPUs...
Next CPU: AtomicSimpleCPU
switching cpus
info: Entering event queue @ 294000004000.  Starting simulation...
Switching CPUs...
Next CPU: AtomicSimpleCPU
switching cpus
info: Entering event queue @ 295000004000.  Starting simulation...
Switching CPUs...
Next CPU: AtomicSimpleCPU
switching cpus
info: Entering event queue @ 296000004000.  Starting simulation...
Switching CPUs...
Next CPU: AtomicSimpleCPU
switching cpus
info: Entering event queue @ 297000004000.  Starting simulation...
Switching CPUs...
Next CPU: AtomicSimpleCPU
switching cpus
info: Entering event queue @ 298000004000.  Starting simulation...
Switching CPUs...
Next CPU: AtomicSimpleCPU
switching cpus
info: Entering event queue @ 299000004000.  Starting simulation...
Switching CPUs...
Next CPU: AtomicSimpleCPU
switching cpus
info: Entering event queue @ 300000004000.  Starting simulation...
Switching CPUs...
Next CPU: AtomicSimpleCPU
switching cpus
info: Entering event queue @ 301000004000.  Starting simulation...
Switching CPUs...
Next CPU: AtomicSimpleCPU
switching cpus
info: Entering event queue @ 302000004000.  Starting simulation...
Switching CPUs...
Next CPU: AtomicSimpleCPU
switching cpus
info: Entering event queue @ 303000004000.  Starting simulation...
Switching CPUs...
Next CPU: AtomicSimpleCPU
switching cpus
info: Entering event queue @ 304000004000.  Starting simulation...
Switching CPUs...
Next CPU: AtomicSimpleCPU
switching cpus
info: Entering event queue @ 305000004000.  Starting simulation...
Switching CPUs...
Next CPU: AtomicSimpleCPU
switching cpus
info: Entering event queue @ 306000004000.  Starting simulation...
Switching CPUs...
Next CPU: AtomicSimpleCPU
switching cpus
info: Entering event queue @ 307000004000.  Starting simulation...
Switching CPUs...
Next CPU: AtomicSimpleCPU
switching cpus
info: Entering event queue @ 308000004000.  Starting simulation...
Switching CPUs...
Next CPU: AtomicSimpleCPU
switching cpus
info: Entering event queue @ 309000004000.  Starting simulation...
Switching CPUs...
Next CPU: AtomicSimpleCPU
switching cpus
info: Entering event queue @ 310000004000.  Starting simulation...
Switching CPUs...
Next CPU: AtomicSimpleCPU
switching cpus
info: Entering event queue @ 311000004000.  Starting simulation...
Switching CPUs...
Next CPU: AtomicSimpleCPU
switching cpus
info: Entering event queue @ 312000004000.  Starting simulation...
Switching CPUs...
Next CPU: AtomicSimpleCPU
switching cpus
info: Entering event queue @ 313000004000.  Starting simulation...
Switching CPUs...
Next CPU: AtomicSimpleCPU
switching cpus
info: Entering event queue @ 314000004000.  Starting simulation...
Switching CPUs...
Next CPU: AtomicSimpleCPU
switching cpus
info: Entering event queue @ 315000004000.  Starting simulation...
Switching CPUs...
Next CPU: AtomicSimpleCPU
switching cpus
info: Entering event queue @ 316000004000.  Starting simulation...
Switching CPUs...
Next CPU: AtomicSimpleCPU
switching cpus
info: Entering event queue @ 317000004000.  Starting simulation...
Switching CPUs...
Next CPU: AtomicSimpleCPU
switching cpus
info: Entering event queue @ 318000004000.  Starting simulation...
Switching CPUs...
Next CPU: AtomicSimpleCPU
switching cpus
info: Entering event queue @ 319000004000.  Starting simulation...
Switching CPUs...
Next CPU: AtomicSimpleCPU
switching cpus
info: Entering event queue @ 320000004000.  Starting simulation...
Switching CPUs...
Next CPU: AtomicSimpleCPU
switching cpus
info: Entering event queue @ 321000004000.  Starting simulation...
Switching CPUs...
Next CPU: AtomicSimpleCPU
switching cpus
info: Entering event queue @ 322000004000.  Starting simulation...
Switching CPUs...
Next CPU: AtomicSimpleCPU
switching cpus
info: Entering event queue @ 323000004000.  Starting simulation...
Switching CPUs...
Next CPU: AtomicSimpleCPU
switching cpus
info: Entering event queue @ 324000004000.  Starting simulation...
Switching CPUs...
Next CPU: AtomicSimpleCPU
switching cpus
info: Entering event queue @ 325000004000.  Starting simulation...
Switching CPUs...
Next CPU: AtomicSimpleCPU
switching cpus
info: Entering event queue @ 326000004000.  Starting simulation...
Switching CPUs...
Next CPU: AtomicSimpleCPU
switching cpus
info: Entering event queue @ 327000004000.  Starting simulation...
Switching CPUs...
Next CPU: AtomicSimpleCPU
switching cpus
info: Entering event queue @ 328000004000.  Starting simulation...
Switching CPUs...
Next CPU: AtomicSimpleCPU
switching cpus
info: Entering event queue @ 329000004000.  Starting simulation...
Switching CPUs...
Next CPU: AtomicSimpleCPU
switching cpus
info: Entering event queue @ 330000004000.  Starting simulation...
Switching CPUs...
Next CPU: AtomicSimpleCPU
switching cpus
info: Entering event queue @ 331000004000.  Starting simulation...
Switching CPUs...
Next CPU: AtomicSimpleCPU
switching cpus
info: Entering event queue @ 332000004000.  Starting simulation...
Switching CPUs...
Next CPU: AtomicSimpleCPU
switching cpus
info: Entering event queue @ 333000004000.  Starting simulation...
Switching CPUs...
Next CPU: AtomicSimpleCPU
switching cpus
info: Entering event queue @ 334000004000.  Starting simulation...
Switching CPUs...
Next CPU: AtomicSimpleCPU
switching cpus
info: Entering event queue @ 335000004000.  Starting simulation...
Switching CPUs...
Next CPU: AtomicSimpleCPU
switching cpus
info: Entering event queue @ 336000004000.  Starting simulation...
Switching CPUs...
Next CPU: AtomicSimpleCPU
switching cpus
info: Entering event queue @ 337000004000.  Starting simulation...
Switching CPUs...
Next CPU: AtomicSimpleCPU
switching cpus
info: Entering event queue @ 338000004000.  Starting simulation...
Switching CPUs...
Next CPU: AtomicSimpleCPU
switching cpus
info: Entering event queue @ 339000004000.  Starting simulation...
Switching CPUs...
Next CPU: AtomicSimpleCPU
switching cpus
info: Entering event queue @ 340000004000.  Starting simulation...
Switching CPUs...
Next CPU: AtomicSimpleCPU
switching cpus
info: Entering event queue @ 341000004000.  Starting simulation...
Switching CPUs...
Next CPU: AtomicSimpleCPU
switching cpus
info: Entering event queue @ 342000004000.  Starting simulation...
Switching CPUs...
Next CPU: AtomicSimpleCPU
switching cpus
info: Entering event queue @ 343000004000.  Starting simulation...
Switching CPUs...
Next CPU: AtomicSimpleCPU
switching cpus
info: Entering event queue @ 344000004000.  Starting simulation...
Switching CPUs...
Next CPU: AtomicSimpleCPU
switching cpus
info: Entering event queue @ 345000004000.  Starting simulation...
Switching CPUs...
Next CPU: AtomicSimpleCPU
switching cpus
info: Entering event queue @ 346000004000.  Starting simulation...
Switching CPUs...
Next CPU: AtomicSimpleCPU
switching cpus
info: Entering event queue @ 347000004000.  Starting simulation...
Switching CPUs...
Next CPU: AtomicSimpleCPU
switching cpus
info: Entering event queue @ 348000004000.  Starting simulation...
Switching CPUs...
Next CPU: AtomicSimpleCPU
switching cpus
info: Entering event queue @ 349000004000.  Starting simulation...
Switching CPUs...
Next CPU: AtomicSimpleCPU
switching cpus
info: Entering event queue @ 350000004000.  Starting simulation...
Switching CPUs...
Next CPU: AtomicSimpleCPU
switching cpus
info: Entering event queue @ 351000004000.  Starting simulation...
Switching CPUs...
Next CPU: AtomicSimpleCPU
switching cpus
info: Entering event queue @ 352000004000.  Starting simulation...
Switching CPUs...
Next CPU: AtomicSimpleCPU
switching cpus
info: Entering event queue @ 353000004000.  Starting simulation...
Switching CPUs...
Next CPU: AtomicSimpleCPU
switching cpus
info: Entering event queue @ 354000004000.  Starting simulation...
Switching CPUs...
Next CPU: AtomicSimpleCPU
switching cpus
info: Entering event queue @ 355000004000.  Starting simulation...
Switching CPUs...
Next CPU: AtomicSimpleCPU
switching cpus
info: Entering event queue @ 356000004000.  Starting simulation...
Switching CPUs...
Next CPU: AtomicSimpleCPU
switching cpus
info: Entering event queue @ 357000004000.  Starting simulation...
Switching CPUs...
Next CPU: AtomicSimpleCPU
switching cpus
info: Entering event queue @ 358000004000.  Starting simulation...
Switching CPUs...
Next CPU: AtomicSimpleCPU
switching cpus
info: Entering event queue @ 359000004000.  Starting simulation...
Switching CPUs...
Next CPU: AtomicSimpleCPU
switching cpus
info: Entering event queue @ 360000004000.  Starting simulation...
Switching CPUs...
Next CPU: AtomicSimpleCPU
switching cpus
info: Entering event queue @ 361000004000.  Starting simulation...
Switching CPUs...
Next CPU: AtomicSimpleCPU
switching cpus
info: Entering event queue @ 362000004000.  Starting simulation...
Switching CPUs...
Next CPU: AtomicSimpleCPU
switching cpus
info: Entering event queue @ 363000004000.  Starting simulation...
Switching CPUs...
Next CPU: AtomicSimpleCPU
switching cpus
info: Entering event queue @ 364000004000.  Starting simulation...
Switching CPUs...
Next CPU: AtomicSimpleCPU
switching cpus
info: Entering event queue @ 365000004000.  Starting simulation...
Switching CPUs...
Next CPU: AtomicSimpleCPU
switching cpus
info: Entering event queue @ 366000004000.  Starting simulation...
Switching CPUs...
Next CPU: AtomicSimpleCPU
switching cpus
info: Entering event queue @ 367000004000.  Starting simulation...
Switching CPUs...
Next CPU: AtomicSimpleCPU
switching cpus
info: Entering event queue @ 368000004000.  Starting simulation...
Switching CPUs...
Next CPU: AtomicSimpleCPU
switching cpus
info: Entering event queue @ 369000004000.  Starting simulation...
Switching CPUs...
Next CPU: AtomicSimpleCPU
switching cpus
info: Entering event queue @ 370000004000.  Starting simulation...
Switching CPUs...
Next CPU: AtomicSimpleCPU
switching cpus
info: Entering event queue @ 371000004000.  Starting simulation...
Switching CPUs...
Next CPU: AtomicSimpleCPU
switching cpus
info: Entering event queue @ 372000004000.  Starting simulation...
Switching CPUs...
Next CPU: AtomicSimpleCPU
switching cpus
info: Entering event queue @ 373000004000.  Starting simulation...
Switching CPUs...
Next CPU: AtomicSimpleCPU
switching cpus
info: Entering event queue @ 374000004000.  Starting simulation...
Switching CPUs...
Next CPU: AtomicSimpleCPU
switching cpus
info: Entering event queue @ 375000004000.  Starting simulation...
Switching CPUs...
Next CPU: AtomicSimpleCPU
switching cpus
info: Entering event queue @ 376000004000.  Starting simulation...
Switching CPUs...
Next CPU: AtomicSimpleCPU
switching cpus
info: Entering event queue @ 377000004000.  Starting simulation...
Switching CPUs...
Next CPU: AtomicSimpleCPU
switching cpus
info: Entering event queue @ 378000004000.  Starting simulation...
Switching CPUs...
Next CPU: AtomicSimpleCPU
switching cpus
info: Entering event queue @ 379000004000.  Starting simulation...
Switching CPUs...
Next CPU: AtomicSimpleCPU
switching cpus
info: Entering event queue @ 380000004000.  Starting simulation...
Switching CPUs...
Next CPU: AtomicSimpleCPU
switching cpus
info: Entering event queue @ 381000004000.  Starting simulation...
Switching CPUs...
Next CPU: AtomicSimpleCPU
switching cpus
info: Entering event queue @ 382000004000.  Starting simulation...
Switching CPUs...
Next CPU: AtomicSimpleCPU
switching cpus
info: Entering event queue @ 383000004000.  Starting simulation...
Switching CPUs...
Next CPU: AtomicSimpleCPU
switching cpus
info: Entering event queue @ 384000004000.  Starting simulation...
Switching CPUs...
Next CPU: AtomicSimpleCPU
switching cpus
info: Entering event queue @ 385000004000.  Starting simulation...
Switching CPUs...
Next CPU: AtomicSimpleCPU
switching cpus
info: Entering event queue @ 386000004000.  Starting simulation...
Switching CPUs...
Next CPU: AtomicSimpleCPU
switching cpus
info: Entering event queue @ 387000004000.  Starting simulation...
Switching CPUs...
Next CPU: AtomicSimpleCPU
switching cpus
info: Entering event queue @ 388000004000.  Starting simulation...
Switching CPUs...
Next CPU: AtomicSimpleCPU
switching cpus
info: Entering event queue @ 389000004000.  Starting simulation...
Switching CPUs...
Next CPU: AtomicSimpleCPU
switching cpus
info: Entering event queue @ 390000004000.  Starting simulation...
Switching CPUs...
Next CPU: AtomicSimpleCPU
switching cpus
info: Entering event queue @ 391000004000.  Starting simulation...
Switching CPUs...
Next CPU: AtomicSimpleCPU
switching cpus
info: Entering event queue @ 392000004000.  Starting simulation...
Switching CPUs...
Next CPU: AtomicSimpleCPU
switching cpus
info: Entering event queue @ 393000004000.  Starting simulation...
Switching CPUs...
Next CPU: AtomicSimpleCPU
switching cpus
info: Entering event queue @ 394000004000.  Starting simulation...
Switching CPUs...
Next CPU: AtomicSimpleCPU
switching cpus
info: Entering event queue @ 395000004000.  Starting simulation...
Switching CPUs...
Next CPU: AtomicSimpleCPU
switching cpus
info: Entering event queue @ 396000004000.  Starting simulation...
Switching CPUs...
Next CPU: AtomicSimpleCPU
switching cpus
info: Entering event queue @ 397000004000.  Starting simulation...
Switching CPUs...
Next CPU: AtomicSimpleCPU
switching cpus
info: Entering event queue @ 398000004000.  Starting simulation...
Switching CPUs...
Next CPU: AtomicSimpleCPU
switching cpus
info: Entering event queue @ 399000004000.  Starting simulation...
Switching CPUs...
Next CPU: AtomicSimpleCPU
switching cpus
info: Entering event queue @ 400000004000.  Starting simulation...
Switching CPUs...
Next CPU: AtomicSimpleCPU
switching cpus
info: Entering event queue @ 401000004000.  Starting simulation...
Switching CPUs...
Next CPU: AtomicSimpleCPU
switching cpus
info: Entering event queue @ 402000004000.  Starting simulation...
Switching CPUs...
Next CPU: AtomicSimpleCPU
switching cpus
info: Entering event queue @ 403000004000.  Starting simulation...
Switching CPUs...
Next CPU: AtomicSimpleCPU
switching cpus
info: Entering event queue @ 404000004000.  Starting simulation...
Switching CPUs...
Next CPU: AtomicSimpleCPU
switching cpus
info: Entering event queue @ 405000004000.  Starting simulation...
Switching CPUs...
Next CPU: AtomicSimpleCPU
switching cpus
info: Entering event queue @ 406000004000.  Starting simulation...
Switching CPUs...
Next CPU: AtomicSimpleCPU
switching cpus
info: Entering event queue @ 407000004000.  Starting simulation...
Switching CPUs...
Next CPU: AtomicSimpleCPU
switching cpus
info: Entering event queue @ 408000004000.  Starting simulation...
Switching CPUs...
Next CPU: AtomicSimpleCPU
switching cpus
info: Entering event queue @ 409000004000.  Starting simulation...
Switching CPUs...
Next CPU: AtomicSimpleCPU
switching cpus
info: Entering event queue @ 410000004000.  Starting simulation...
Switching CPUs...
Next CPU: AtomicSimpleCPU
switching cpus
info: Entering event queue @ 411000004000.  Starting simulation...
Switching CPUs...
Next CPU: AtomicSimpleCPU
switching cpus
info: Entering event queue @ 412000004000.  Starting simulation...
Switching CPUs...
Next CPU: AtomicSimpleCPU
switching cpus
info: Entering event queue @ 413000004000.  Starting simulation...
Switching CPUs...
Next CPU: AtomicSimpleCPU
switching cpus
info: Entering event queue @ 414000004000.  Starting simulation...
Switching CPUs...
Next CPU: AtomicSimpleCPU
switching cpus
info: Entering event queue @ 415000004000.  Starting simulation...
Switching CPUs...
Next CPU: AtomicSimpleCPU
switching cpus
info: Entering event queue @ 416000004000.  Starting simulation...
Switching CPUs...
Next CPU: AtomicSimpleCPU
switching cpus
info: Entering event queue @ 417000004000.  Starting simulation...
Switching CPUs...
Next CPU: AtomicSimpleCPU
switching cpus
info: Entering event queue @ 418000004000.  Starting simulation...
Switching CPUs...
Next CPU: AtomicSimpleCPU
switching cpus
info: Entering event queue @ 419000004000.  Starting simulation...
Switching CPUs...
Next CPU: AtomicSimpleCPU
switching cpus
info: Entering event queue @ 420000004000.  Starting simulation...
Switching CPUs...
Next CPU: AtomicSimpleCPU
switching cpus
info: Entering event queue @ 421000004000.  Starting simulation...
Switching CPUs...
Next CPU: AtomicSimpleCPU
switching cpus
info: Entering event queue @ 422000004000.  Starting simulation...
Switching CPUs...
Next CPU: AtomicSimpleCPU
switching cpus
info: Entering event queue @ 423000004000.  Starting simulation...
Switching CPUs...
Next CPU: AtomicSimpleCPU
switching cpus
info: Entering event queue @ 424000004000.  Starting simulation...
Switching CPUs...
Next CPU: AtomicSimpleCPU
switching cpus
info: Entering event queue @ 425000004000.  Starting simulation...
Switching CPUs...
Next CPU: AtomicSimpleCPU
switching cpus
info: Entering event queue @ 426000004000.  Starting simulation...
Switching CPUs...
Next CPU: AtomicSimpleCPU
switching cpus
info: Entering event queue @ 427000004000.  Starting simulation...
Switching CPUs...
Next CPU: AtomicSimpleCPU
switching cpus
info: Entering event queue @ 428000004000.  Starting simulation...
Switching CPUs...
Next CPU: AtomicSimpleCPU
switching cpus
info: Entering event queue @ 429000004000.  Starting simulation...
Switching CPUs...
Next CPU: AtomicSimpleCPU
switching cpus
info: Entering event queue @ 430000004000.  Starting simulation...
Switching CPUs...
Next CPU: AtomicSimpleCPU
switching cpus
info: Entering event queue @ 431000004000.  Starting simulation...
Switching CPUs...
Next CPU: AtomicSimpleCPU
switching cpus
info: Entering event queue @ 432000004000.  Starting simulation...
Switching CPUs...
Next CPU: AtomicSimpleCPU
switching cpus
info: Entering event queue @ 433000004000.  Starting simulation...
Switching CPUs...
Next CPU: AtomicSimpleCPU
switching cpus
info: Entering event queue @ 434000004000.  Starting simulation...
Switching CPUs...
Next CPU: AtomicSimpleCPU
switching cpus
info: Entering event queue @ 435000004000.  Starting simulation...
Switching CPUs...
Next CPU: AtomicSimpleCPU
switching cpus
info: Entering event queue @ 436000004000.  Starting simulation...
Switching CPUs...
Next CPU: AtomicSimpleCPU
switching cpus
info: Entering event queue @ 437000004000.  Starting simulation...
Switching CPUs...
Next CPU: AtomicSimpleCPU
switching cpus
info: Entering event queue @ 438000004000.  Starting simulation...
Switching CPUs...
Next CPU: AtomicSimpleCPU
switching cpus
info: Entering event queue @ 439000004000.  Starting simulation...
Switching CPUs...
Next CPU: AtomicSimpleCPU
switching cpus
info: Entering event queue @ 440000004000.  Starting simulation...
Switching CPUs...
Next CPU: AtomicSimpleCPU
switching cpus
info: Entering event queue @ 441000004000.  Starting simulation...
Switching CPUs...
Next CPU: AtomicSimpleCPU
switching cpus
info: Entering event queue @ 442000004000.  Starting simulation...
Switching CPUs...
Next CPU: AtomicSimpleCPU
switching cpus
info: Entering event queue @ 443000004000.  Starting simulation...
Switching CPUs...
Next CPU: AtomicSimpleCPU
switching cpus
info: Entering event queue @ 444000004000.  Starting simulation...
Switching CPUs...
Next CPU: AtomicSimpleCPU
switching cpus
info: Entering event queue @ 445000004000.  Starting simulation...
Switching CPUs...
Next CPU: AtomicSimpleCPU
switching cpus
info: Entering event queue @ 446000004000.  Starting simulation...
Switching CPUs...
Next CPU: AtomicSimpleCPU
switching cpus
info: Entering event queue @ 447000004000.  Starting simulation...
Switching CPUs...
Next CPU: AtomicSimpleCPU
switching cpus
info: Entering event queue @ 448000004000.  Starting simulation...
Switching CPUs...
Next CPU: AtomicSimpleCPU
switching cpus
info: Entering event queue @ 449000004000.  Starting simulation...
Switching CPUs...
Next CPU: AtomicSimpleCPU
switching cpus
info: Entering event queue @ 450000004000.  Starting simulation...
Switching CPUs...
Next CPU: AtomicSimpleCPU
switching cpus
info: Entering event queue @ 451000004000.  Starting simulation...
Switching CPUs...
Next CPU: AtomicSimpleCPU
switching cpus
info: Entering event queue @ 452000004000.  Starting simulation...
Switching CPUs...
Next CPU: AtomicSimpleCPU
switching cpus
info: Entering event queue @ 453000004000.  Starting simulation...
Switching CPUs...
Next CPU: AtomicSimpleCPU
switching cpus
info: Entering event queue @ 454000004000.  Starting simulation...
Switching CPUs...
Next CPU: AtomicSimpleCPU
switching cpus
info: Entering event queue @ 455000004000.  Starting simulation...
Switching CPUs...
Next CPU: AtomicSimpleCPU
switching cpus
info: Entering event queue @ 456000004000.  Starting simulation...
Switching CPUs...
Next CPU: AtomicSimpleCPU
switching cpus
info: Entering event queue @ 457000004000.  Starting simulation...
Switching CPUs...
Next CPU: AtomicSimpleCPU
switching cpus
info: Entering event queue @ 458000004000.  Starting simulation...
Switching CPUs...
Next CPU: AtomicSimpleCPU
switching cpus
info: Entering event queue @ 459000004000.  Starting simulation...
Switching CPUs...
Next CPU: AtomicSimpleCPU
switching cpus
info: Entering event queue @ 460000004000.  Starting simulation...
Switching CPUs...
Next CPU: AtomicSimpleCPU
switching cpus
info: Entering event queue @ 461000004000.  Starting simulation...
Switching CPUs...
Next CPU: AtomicSimpleCPU
switching cpus
info: Entering event queue @ 462000004000.  Starting simulation...
Switching CPUs...
Next CPU: AtomicSimpleCPU
switching cpus
info: Entering event queue @ 463000004000.  Starting simulation...
Switching CPUs...
Next CPU: AtomicSimpleCPU
switching cpus
info: Entering event queue @ 464000004000.  Starting simulation...
Switching CPUs...
Next CPU: AtomicSimpleCPU
switching cpus
info: Entering event queue @ 465000004000.  Starting simulation...
Switching CPUs...
Next CPU: AtomicSimpleCPU
switching cpus
info: Entering event queue @ 466000004000.  Starting simulation...
Switching CPUs...
Next CPU: AtomicSimpleCPU
switching cpus
info: Entering event queue @ 467000004000.  Starting simulation...
Switching CPUs...
Next CPU: AtomicSimpleCPU
switching cpus
info: Entering event queue @ 468000004000.  Starting simulation...
Switching CPUs...
Next CPU: AtomicSimpleCPU
switching cpus
info: Entering event queue @ 469000004000.  Starting simulation...
Switching CPUs...
Next CPU: AtomicSimpleCPU
switching cpus
info: Entering event queue @ 470000004000.  Starting simulation...
Switching CPUs...
Next CPU: AtomicSimpleCPU
switching cpus
info: Entering event queue @ 471000004000.  Starting simulation...
Switching CPUs...
Next CPU: AtomicSimpleCPU
switching cpus
info: Entering event queue @ 472000004000.  Starting simulation...
Switching CPUs...
Next CPU: AtomicSimpleCPU
switching cpus
info: Entering event queue @ 473000004000.  Starting simulation...
Switching CPUs...
Next CPU: AtomicSimpleCPU
switching cpus
info: Entering event queue @ 474000004000.  Starting simulation...
Switching CPUs...
Next CPU: AtomicSimpleCPU
switching cpus
info: Entering event queue @ 475000004000.  Starting simulation...
Switching CPUs...
Next CPU: AtomicSimpleCPU
switching cpus
info: Entering event queue @ 476000004000.  Starting simulation...
Switching CPUs...
Next CPU: AtomicSimpleCPU
switching cpus
info: Entering event queue @ 477000004000.  Starting simulation...
Switching CPUs...
Next CPU: AtomicSimpleCPU
switching cpus
info: Entering event queue @ 478000004000.  Starting simulation...
Switching CPUs...
Next CPU: AtomicSimpleCPU
switching cpus
info: Entering event queue @ 479000004000.  Starting simulation...
Switching CPUs...
Next CPU: AtomicSimpleCPU
switching cpus
info: Entering event queue @ 480000004000.  Starting simulation...
Switching CPUs...
Next CPU: AtomicSimpleCPU
switching cpus
info: Entering event queue @ 481000004000.  Starting simulation...
Switching CPUs...
Next CPU: AtomicSimpleCPU
switching cpus
info: Entering event queue @ 482000004000.  Starting simulation...
Switching CPUs...
Next CPU: AtomicSimpleCPU
switching cpus
info: Entering event queue @ 483000004000.  Starting simulation...
Switching CPUs...
Next CPU: AtomicSimpleCPU
switching cpus
info: Entering event queue @ 484000004000.  Starting simulation...
Switching CPUs...
Next CPU: AtomicSimpleCPU
switching cpus
info: Entering event queue @ 485000004000.  Starting simulation...
Switching CPUs...
Next CPU: AtomicSimpleCPU
switching cpus
info: Entering event queue @ 486000004000.  Starting simulation...
Switching CPUs...
Next CPU: AtomicSimpleCPU
switching cpus
info: Entering event queue @ 487000004000.  Starting simulation...
Switching CPUs...
Next CPU: AtomicSimpleCPU
switching cpus
info: Entering event queue @ 488000004000.  Starting simulation...
Switching CPUs...
Next CPU: AtomicSimpleCPU
switching cpus
info: Entering event queue @ 489000004000.  Starting simulation...
Switching CPUs...
Next CPU: AtomicSimpleCPU
switching cpus
info: Entering event queue @ 490000004000.  Starting simulation...
Switching CPUs...
Next CPU: AtomicSimpleCPU
switching cpus
info: Entering event queue @ 491000004000.  Starting simulation...
Switching CPUs...
Next CPU: AtomicSimpleCPU
switching cpus
info: Entering event queue @ 492000004000.  Starting simulation...
Switching CPUs...
Next CPU: AtomicSimpleCPU
switching cpus
info: Entering event queue @ 493000004000.  Starting simulation...
Switching CPUs...
Next CPU: AtomicSimpleCPU
switching cpus
info: Entering event queue @ 494000004000.  Starting simulation...
Switching CPUs...
Next CPU: AtomicSimpleCPU
switching cpus
info: Entering event queue @ 495000004000.  Starting simulation...
Switching CPUs...
Next CPU: AtomicSimpleCPU
switching cpus
info: Entering event queue @ 496000004000.  Starting simulation...
Switching CPUs...
Next CPU: AtomicSimpleCPU
switching cpus
info: Entering event queue @ 497000004000.  Starting simulation...
Switching CPUs...
Next CPU: AtomicSimpleCPU
switching cpus
info: Entering event queue @ 498000004000.  Starting simulation...
Switching CPUs...
Next CPU: AtomicSimpleCPU
switching cpus
info: Entering event queue @ 499000004000.  Starting simulation...
Switching CPUs...
Next CPU: AtomicSimpleCPU
switching cpus
info: Entering event queue @ 500000004000.  Starting simulation...
Switching CPUs...
Next CPU: AtomicSimpleCPU
switching cpus
info: Entering event queue @ 501000004000.  Starting simulation...
Switching CPUs...
Next CPU: AtomicSimpleCPU
switching cpus
info: Entering event queue @ 502000004000.  Starting simulation...
Switching CPUs...
Next CPU: AtomicSimpleCPU
switching cpus
info: Entering event queue @ 503000004000.  Starting simulation...
Switching CPUs...
Next CPU: AtomicSimpleCPU
switching cpus
info: Entering event queue @ 504000004000.  Starting simulation...
Switching CPUs...
Next CPU: AtomicSimpleCPU
switching cpus
info: Entering event queue @ 505000004000.  Starting simulation...
Switching CPUs...
Next CPU: AtomicSimpleCPU
switching cpus
info: Entering event queue @ 506000004000.  Starting simulation...
Switching CPUs...
Next CPU: AtomicSimpleCPU
switching cpus
info: Entering event queue @ 507000004000.  Starting simulation...
Switching CPUs...
Next CPU: AtomicSimpleCPU
switching cpus
info: Entering event queue @ 508000004000.  Starting simulation...
Switching CPUs...
Next CPU: AtomicSimpleCPU
switching cpus
info: Entering event queue @ 509000004000.  Starting simulation...
Switching CPUs...
Next CPU: AtomicSimpleCPU
switching cpus
info: Entering event queue @ 510000004000.  Starting simulation...
Switching CPUs...
Next CPU: AtomicSimpleCPU
switching cpus
info: Entering event queue @ 511000004000.  Starting simulation...
Switching CPUs...
Next CPU: AtomicSimpleCPU
switching cpus
info: Entering event queue @ 512000004000.  Starting simulation...
Switching CPUs...
Next CPU: AtomicSimpleCPU
switching cpus
info: Entering event queue @ 513000004000.  Starting simulation...
Switching CPUs...
Next CPU: AtomicSimpleCPU
switching cpus
info: Entering event queue @ 514000004000.  Starting simulation...
Switching CPUs...
Next CPU: AtomicSimpleCPU
switching cpus
info: Entering event queue @ 515000004000.  Starting simulation...
Switching CPUs...
Next CPU: AtomicSimpleCPU
switching cpus
info: Entering event queue @ 516000004000.  Starting simulation...
Switching CPUs...
Next CPU: AtomicSimpleCPU
switching cpus
info: Entering event queue @ 517000004000.  Starting simulation...
Switching CPUs...
Next CPU: AtomicSimpleCPU
switching cpus
info: Entering event queue @ 518000004000.  Starting simulation...
Switching CPUs...
Next CPU: AtomicSimpleCPU
switching cpus
info: Entering event queue @ 519000004000.  Starting simulation...
Switching CPUs...
Next CPU: AtomicSimpleCPU
switching cpus
info: Entering event queue @ 520000004000.  Starting simulation...
Switching CPUs...
Next CPU: AtomicSimpleCPU
switching cpus
info: Entering event queue @ 521000004000.  Starting simulation...
Switching CPUs...
Next CPU: AtomicSimpleCPU
switching cpus
info: Entering event queue @ 522000004000.  Starting simulation...
Switching CPUs...
Next CPU: AtomicSimpleCPU
switching cpus
info: Entering event queue @ 523000004000.  Starting simulation...
Switching CPUs...
Next CPU: AtomicSimpleCPU
switching cpus
info: Entering event queue @ 524000004000.  Starting simulation...
Switching CPUs...
Next CPU: AtomicSimpleCPU
switching cpus
info: Entering event queue @ 525000004000.  Starting simulation...
Switching CPUs...
Next CPU: AtomicSimpleCPU
switching cpus
info: Entering event queue @ 526000004000.  Starting simulation...
Switching CPUs...
Next CPU: AtomicSimpleCPU
switching cpus
info: Entering event queue @ 527000004000.  Starting simulation...
Switching CPUs...
Next CPU: AtomicSimpleCPU
switching cpus
info: Entering event queue @ 528000004000.  Starting simulation...
Switching CPUs...
Next CPU: AtomicSimpleCPU
switching cpus
info: Entering event queue @ 529000004000.  Starting simulation...
Switching CPUs...
Next CPU: AtomicSimpleCPU
switching cpus
info: Entering event queue @ 530000004000.  Starting simulation...
Switching CPUs...
Next CPU: AtomicSimpleCPU
switching cpus
info: Entering event queue @ 531000004000.  Starting simulation...
Switching CPUs...
Next CPU: AtomicSimpleCPU
switching cpus
info: Entering event queue @ 532000004000.  Starting simulation...
Switching CPUs...
Next CPU: AtomicSimpleCPU
switching cpus
info: Entering event queue @ 533000004000.  Starting simulation...
Switching CPUs...
Next CPU: AtomicSimpleCPU
switching cpus
info: Entering event queue @ 534000004000.  Starting simulation...
Switching CPUs...
Next CPU: AtomicSimpleCPU
switching cpus
info: Entering event queue @ 535000004000.  Starting simulation...
Switching CPUs...
Next CPU: AtomicSimpleCPU
switching cpus
info: Entering event queue @ 536000004000.  Starting simulation...
Switching CPUs...
Next CPU: AtomicSimpleCPU
switching cpus
info: Entering event queue @ 537000004000.  Starting simulation...
Switching CPUs...
Next CPU: AtomicSimpleCPU
switching cpus
info: Entering event queue @ 538000004000.  Starting simulation...
Switching CPUs...
Next CPU: AtomicSimpleCPU
switching cpus
info: Entering event queue @ 539000004000.  Starting simulation...
Switching CPUs...
Next CPU: AtomicSimpleCPU
switching cpus
info: Entering event queue @ 540000004000.  Starting simulation...
Switching CPUs...
Next CPU: AtomicSimpleCPU
switching cpus
info: Entering event queue @ 541000004000.  Starting simulation...
Switching CPUs...
Next CPU: AtomicSimpleCPU
switching cpus
info: Entering event queue @ 542000004000.  Starting simulation...
Switching CPUs...
Next CPU: AtomicSimpleCPU
switching cpus
info: Entering event queue @ 543000004000.  Starting simulation...
Switching CPUs...
Next CPU: AtomicSimpleCPU
switching cpus
info: Entering event queue @ 544000004000.  Starting simulation...
Switching CPUs...
Next CPU: AtomicSimpleCPU
switching cpus
info: Entering event queue @ 545000004000.  Starting simulation...
Switching CPUs...
Next CPU: AtomicSimpleCPU
switching cpus
info: Entering event queue @ 546000004000.  Starting simulation...
Switching CPUs...
Next CPU: AtomicSimpleCPU
switching cpus
info: Entering event queue @ 547000004000.  Starting simulation...
Switching CPUs...
Next CPU: AtomicSimpleCPU
switching cpus
info: Entering event queue @ 548000004000.  Starting simulation...
Switching CPUs...
Next CPU: AtomicSimpleCPU
switching cpus
info: Entering event queue @ 549000004000.  Starting simulation...
Switching CPUs...
Next CPU: AtomicSimpleCPU
switching cpus
info: Entering event queue @ 550000004000.  Starting simulation...
Switching CPUs...
Next CPU: AtomicSimpleCPU
switching cpus
info: Entering event queue @ 551000004000.  Starting simulation...
Switching CPUs...
Next CPU: AtomicSimpleCPU
switching cpus
info: Entering event queue @ 552000004000.  Starting simulation...
Switching CPUs...
Next CPU: AtomicSimpleCPU
switching cpus
info: Entering event queue @ 553000004000.  Starting simulation...
Switching CPUs...
Next CPU: AtomicSimpleCPU
switching cpus
info: Entering event queue @ 554000004000.  Starting simulation...
Switching CPUs...
Next CPU: AtomicSimpleCPU
switching cpus
info: Entering event queue @ 555000004000.  Starting simulation...
Switching CPUs...
Next CPU: AtomicSimpleCPU
switching cpus
info: Entering event queue @ 556000004000.  Starting simulation...
Switching CPUs...
Next CPU: AtomicSimpleCPU
switching cpus
info: Entering event queue @ 557000004000.  Starting simulation...
Switching CPUs...
Next CPU: AtomicSimpleCPU
switching cpus
info: Entering event queue @ 558000004000.  Starting simulation...
Switching CPUs...
Next CPU: AtomicSimpleCPU
switching cpus
info: Entering event queue @ 559000004000.  Starting simulation...
Switching CPUs...
Next CPU: AtomicSimpleCPU
switching cpus
info: Entering event queue @ 560000004000.  Starting simulation...
Switching CPUs...
Next CPU: AtomicSimpleCPU
switching cpus
info: Entering event queue @ 561000004000.  Starting simulation...
Switching CPUs...
Next CPU: AtomicSimpleCPU
switching cpus
info: Entering event queue @ 562000004000.  Starting simulation...
Switching CPUs...
Next CPU: AtomicSimpleCPU
switching cpus
info: Entering event queue @ 563000004000.  Starting simulation...
Switching CPUs...
Next CPU: AtomicSimpleCPU
switching cpus
info: Entering event queue @ 564000004000.  Starting simulation...
Switching CPUs...
Next CPU: AtomicSimpleCPU
switching cpus
info: Entering event queue @ 565000004000.  Starting simulation...
Switching CPUs...
Next CPU: AtomicSimpleCPU
switching cpus
info: Entering event queue @ 566000004000.  Starting simulation...
Switching CPUs...
Next CPU: AtomicSimpleCPU
switching cpus
info: Entering event queue @ 567000004000.  Starting simulation...
Switching CPUs...
Next CPU: AtomicSimpleCPU
switching cpus
info: Entering event queue @ 568000004000.  Starting simulation...
Switching CPUs...
Next CPU: AtomicSimpleCPU
switching cpus
info: Entering event queue @ 569000004000.  Starting simulation...
Switching CPUs...
Next CPU: AtomicSimpleCPU
switching cpus
info: Entering event queue @ 570000004000.  Starting simulation...
Switching CPUs...
Next CPU: AtomicSimpleCPU
switching cpus
info: Entering event queue @ 571000004000.  Starting simulation...
Switching CPUs...
Next CPU: AtomicSimpleCPU
switching cpus
info: Entering event queue @ 572000004000.  Starting simulation...
Switching CPUs...
Next CPU: AtomicSimpleCPU
switching cpus
info: Entering event queue @ 573000004000.  Starting simulation...
Switching CPUs...
Next CPU: AtomicSimpleCPU
switching cpus
info: Entering event queue @ 574000004000.  Starting simulation...
Switching CPUs...
Next CPU: AtomicSimpleCPU
switching cpus
info: Entering event queue @ 575000004000.  Starting simulation...
Switching CPUs...
Next CPU: AtomicSimpleCPU
switching cpus
info: Entering event queue @ 576000004000.  Starting simulation...
Switching CPUs...
Next CPU: AtomicSimpleCPU
switching cpus
info: Entering event queue @ 577000004000.  Starting simulation...
Switching CPUs...
Next CPU: AtomicSimpleCPU
switching cpus
info: Entering event queue @ 578000004000.  Starting simulation...
Switching CPUs...
Next CPU: AtomicSimpleCPU
switching cpus
info: Entering event queue @ 579000004000.  Starting simulation...
Switching CPUs...
Next CPU: AtomicSimpleCPU
switching cpus
info: Entering event queue @ 580000004000.  Starting simulation...
Switching CPUs...
Next CPU: AtomicSimpleCPU
switching cpus
info: Entering event queue @ 581000004000.  Starting simulation...
Switching CPUs...
Next CPU: AtomicSimpleCPU
switching cpus
info: Entering event queue @ 582000004000.  Starting simulation...
Switching CPUs...
Next CPU: AtomicSimpleCPU
switching cpus
info: Entering event queue @ 583000004000.  Starting simulation...
Switching CPUs...
Next CPU: AtomicSimpleCPU
switching cpus
info: Entering event queue @ 584000004000.  Starting simulation...
Switching CPUs...
Next CPU: AtomicSimpleCPU
switching cpus
info: Entering event queue @ 585000004000.  Starting simulation...
Switching CPUs...
Next CPU: AtomicSimpleCPU
switching cpus
info: Entering event queue @ 586000004000.  Starting simulation...
Switching CPUs...
Next CPU: AtomicSimpleCPU
switching cpus
info: Entering event queue @ 587000004000.  Starting simulation...
Switching CPUs...
Next CPU: AtomicSimpleCPU
switching cpus
info: Entering event queue @ 588000004000.  Starting simulation...
Switching CPUs...
Next CPU: AtomicSimpleCPU
switching cpus
info: Entering event queue @ 589000004000.  Starting simulation...
Switching CPUs...
Next CPU: AtomicSimpleCPU
switching cpus
info: Entering event queue @ 590000004000.  Starting simulation...
Switching CPUs...
Next CPU: AtomicSimpleCPU
switching cpus
info: Entering event queue @ 591000004000.  Starting simulation...
Switching CPUs...
Next CPU: AtomicSimpleCPU
switching cpus
info: Entering event queue @ 592000004000.  Starting simulation...
Switching CPUs...
Next CPU: AtomicSimpleCPU
switching cpus
info: Entering event queue @ 593000004000.  Starting simulation...
Switching CPUs...
Next CPU: AtomicSimpleCPU
switching cpus
info: Entering event queue @ 594000004000.  Starting simulation...
Switching CPUs...
Next CPU: AtomicSimpleCPU
switching cpus
info: Entering event queue @ 595000004000.  Starting simulation...
Switching CPUs...
Next CPU: AtomicSimpleCPU
switching cpus
info: Entering event queue @ 596000004000.  Starting simulation...
Switching CPUs...
Next CPU: AtomicSimpleCPU
switching cpus
info: Entering event queue @ 597000004000.  Starting simulation...
Switching CPUs...
Next CPU: AtomicSimpleCPU
switching cpus
info: Entering event queue @ 598000004000.  Starting simulation...
Switching CPUs...
Next CPU: AtomicSimpleCPU
switching cpus
info: Entering event queue @ 599000004000.  Starting simulation...
Switching CPUs...
Next CPU: AtomicSimpleCPU
switching cpus
info: Entering event queue @ 600000004000.  Starting simulation...
Switching CPUs...
Next CPU: AtomicSimpleCPU
switching cpus
info: Entering event queue @ 601000004000.  Starting simulation...
Switching CPUs...
Next CPU: AtomicSimpleCPU
switching cpus
info: Entering event queue @ 602000004000.  Starting simulation...
Switching CPUs...
Next CPU: AtomicSimpleCPU
switching cpus
info: Entering event queue @ 603000004000.  Starting simulation...
Switching CPUs...
Next CPU: AtomicSimpleCPU
switching cpus
info: Entering event queue @ 604000004000.  Starting simulation...
Switching CPUs...
Next CPU: AtomicSimpleCPU
switching cpus
info: Entering event queue @ 605000004000.  Starting simulation...
Switching CPUs...
Next CPU: AtomicSimpleCPU
switching cpus
info: Entering event queue @ 606000004000.  Starting simulation...
Switching CPUs...
Next CPU: AtomicSimpleCPU
switching cpus
info: Entering event queue @ 607000004000.  Starting simulation...
Switching CPUs...
Next CPU: AtomicSimpleCPU
switching cpus
info: Entering event queue @ 608000004000.  Starting simulation...
Switching CPUs...
Next CPU: AtomicSimpleCPU
switching cpus
info: Entering event queue @ 609000004000.  Starting simulation...
Switching CPUs...
Next CPU: AtomicSimpleCPU
switching cpus
info: Entering event queue @ 610000004000.  Starting simulation...
Switching CPUs...
Next CPU: AtomicSimpleCPU
switching cpus
info: Entering event queue @ 611000004000.  Starting simulation...
Switching CPUs...
Next CPU: AtomicSimpleCPU
switching cpus
info: Entering event queue @ 612000004000.  Starting simulation...
Switching CPUs...
Next CPU: AtomicSimpleCPU
switching cpus
info: Entering event queue @ 613000004000.  Starting simulation...
Switching CPUs...
Next CPU: AtomicSimpleCPU
switching cpus
info: Entering event queue @ 614000004000.  Starting simulation...
Switching CPUs...
Next CPU: AtomicSimpleCPU
switching cpus
info: Entering event queue @ 615000004000.  Starting simulation...
Switching CPUs...
Next CPU: AtomicSimpleCPU
switching cpus
info: Entering event queue @ 616000004000.  Starting simulation...
Switching CPUs...
Next CPU: AtomicSimpleCPU
switching cpus
info: Entering event queue @ 617000004000.  Starting simulation...
Switching CPUs...
Next CPU: AtomicSimpleCPU
switching cpus
info: Entering event queue @ 618000004000.  Starting simulation...
Switching CPUs...
Next CPU: AtomicSimpleCPU
switching cpus
info: Entering event queue @ 619000004000.  Starting simulation...
Switching CPUs...
Next CPU: AtomicSimpleCPU
switching cpus
info: Entering event queue @ 620000004000.  Starting simulation...
Switching CPUs...
Next CPU: AtomicSimpleCPU
switching cpus
info: Entering event queue @ 621000004000.  Starting simulation...
Switching CPUs...
Next CPU: AtomicSimpleCPU
switching cpus
info: Entering event queue @ 622000004000.  Starting simulation...
Switching CPUs...
Next CPU: AtomicSimpleCPU
switching cpus
info: Entering event queue @ 623000004000.  Starting simulation...
Switching CPUs...
Next CPU: AtomicSimpleCPU
switching cpus
info: Entering event queue @ 624000004000.  Starting simulation...
Switching CPUs...
Next CPU: AtomicSimpleCPU
switching cpus
info: Entering event queue @ 625000004000.  Starting simulation...
Switching CPUs...
Next CPU: AtomicSimpleCPU
switching cpus
info: Entering event queue @ 626000004000.  Starting simulation...
Switching CPUs...
Next CPU: AtomicSimpleCPU
switching cpus
info: Entering event queue @ 627000004000.  Starting simulation...
Switching CPUs...
Next CPU: AtomicSimpleCPU
switching cpus
info: Entering event queue @ 628000004000.  Starting simulation...
Switching CPUs...
Next CPU: AtomicSimpleCPU
switching cpus
[...]
Switching CPUs...
Next CPU: AtomicSimpleCPU
switching cpus
info: Entering event queue @ 2177000004000.  Starting simulation...
Switching CPUs...
Next CPU: AtomicSimpleCPU
switching cpus
info: Entering event queue @ 2178000004000.  Starting simulation...
Switching CPUs...
Next CPU: AtomicSimpleCPU
switching cpus
info: Entering event queue @ 2179000004000.  Starting simulation...
Switching CPUs...
Next CPU: AtomicSimpleCPU
switching cpus
info: Entering event queue @ 2180000004000.  Starting simulation...
Switching CPUs...
Next CPU: AtomicSimpleCPU
switching cpus
info: Entering event queue @ 2181000004000.  Starting simulation...
Switching CPUs...
Next CPU: AtomicSimpleCPU
switching cpus
info: Entering event queue @ 2182000004000.  Starting simulation...
Switching CPUs...
Next CPU: AtomicSimpleCPU
switching cpus
info: Entering event queue @ 2183000004000.  Starting simulation...
Switching CPUs...
Next CPU: AtomicSimpleCPU
switching cpus
info: Entering event queue @ 2184000004000.  Starting simulation...
Switching CPUs...
Next CPU: AtomicSimpleCPU
switching cpus
info: Entering event queue @ 2185000004000.  Starting simulation...
Switching CPUs...
Next CPU: AtomicSimpleCPU
switching cpus
info: Entering event queue @ 2186000004000.  Starting simulation...
Switching CPUs...
Next CPU: AtomicSimpleCPU
switching cpus
info: Entering event queue @ 2187000004000.  Starting simulation...
Switching CPUs...
Next CPU: AtomicSimpleCPU
switching cpus
info: Entering event queue @ 2188000004000.  Starting simulation...
Switching CPUs...
Next CPU: AtomicSimpleCPU
switching cpus
info: Entering event queue @ 2189000004000.  Starting simulation...
Switching CPUs...
Next CPU: AtomicSimpleCPU
switching cpus
info: Entering event queue @ 2190000004000.  Starting simulation...
Switching CPUs...
Next CPU: AtomicSimpleCPU
switching cpus
info: Entering event queue @ 2191000004000.  Starting simulation...
Switching CPUs...
Next CPU: AtomicSimpleCPU
switching cpus
info: Entering event queue @ 2192000004000.  Starting simulation...
Switching CPUs...
Next CPU: AtomicSimpleCPU
switching cpus
info: Entering event queue @ 2193000004000.  Starting simulation...
Switching CPUs...
Next CPU: AtomicSimpleCPU
switching cpus
info: Entering event queue @ 2194000004000.  Starting simulation...
Switching CPUs...
Next CPU: AtomicSimpleCPU
switching cpus
info: Entering event queue @ 2195000004000.  Starting simulation...
Switching CPUs...
Next CPU: AtomicSimpleCPU
switching cpus
info: Entering event queue @ 2196000004000.  Starting simulation...
Switching CPUs...
Next CPU: AtomicSimpleCPU
switching cpus
info: Entering event queue @ 2197000004000.  Starting simulation...
Switching CPUs...
Next CPU: AtomicSimpleCPU
switching cpus
info: Entering event queue @ 2198000004000.  Starting simulation...
Switching CPUs...
Next CPU: AtomicSimpleCPU
switching cpus
info: Entering event queue @ 2199000004000.  Starting simulation...
Switching CPUs...
Next CPU: AtomicSimpleCPU
switching cpus
info: Entering event queue @ 2200000004000.  Starting simulation...
Switching CPUs...
Next CPU: AtomicSimpleCPU
switching cpus
info: Entering event queue @ 2201000004000.  Starting simulation...
Switching CPUs...
Next CPU: AtomicSimpleCPU
switching cpus
info: Entering event queue @ 2202000004000.  Starting simulation...
Switching CPUs...
Next CPU: AtomicSimpleCPU
switching cpus
info: Entering event queue @ 2203000004000.  Starting simulation...
Switching CPUs...
Next CPU: AtomicSimpleCPU
switching cpus
info: Entering event queue @ 2204000004000.  Starting simulation...
Switching CPUs...
Next CPU: AtomicSimpleCPU
switching cpus
info: Entering event queue @ 2205000004000.  Starting simulation...
Switching CPUs...
Next CPU: AtomicSimpleCPU
switching cpus
info: Entering event queue @ 2206000004000.  Starting simulation...
Switching CPUs...
Next CPU: AtomicSimpleCPU
switching cpus
info: Entering event queue @ 2207000004000.  Starting simulation...
Switching CPUs...
Next CPU: AtomicSimpleCPU
switching cpus
info: Entering event queue @ 2208000004000.  Starting simulation...
Switching CPUs...
Next CPU: AtomicSimpleCPU
switching cpus
info: Entering event queue @ 2209000004000.  Starting simulation...
Switching CPUs...
Next CPU: AtomicSimpleCPU
switching cpus
info: Entering event queue @ 2210000004000.  Starting simulation...
Switching CPUs...
Next CPU: AtomicSimpleCPU
switching cpus
info: Entering event queue @ 2211000004000.  Starting simulation...
Switching CPUs...
Next CPU: AtomicSimpleCPU
switching cpus
info: Entering event queue @ 2212000004000.  Starting simulation...
Switching CPUs...
Next CPU: AtomicSimpleCPU
switching cpus
info: Entering event queue @ 2213000004000.  Starting simulation...
Switching CPUs...
Next CPU: AtomicSimpleCPU
switching cpus
info: Entering event queue @ 2214000004000.  Starting simulation...
Switching CPUs...
Next CPU: AtomicSimpleCPU
switching cpus
info: Entering event queue @ 2215000004000.  Starting simulation...
Switching CPUs...
Next CPU: AtomicSimpleCPU
switching cpus
info: Entering event queue @ 2216000004000.  Starting simulation...
Switching CPUs...
Next CPU: AtomicSimpleCPU
switching cpus
info: Entering event queue @ 2217000004000.  Starting simulation...
Switching CPUs...
Next CPU: AtomicSimpleCPU
switching cpus
info: Entering event queue @ 2218000004000.  Starting simulation...
Switching CPUs...
Next CPU: AtomicSimpleCPU
switching cpus
info: Entering event queue @ 2219000004000.  Starting simulation...
Switching CPUs...
Next CPU: AtomicSimpleCPU
switching cpus
info: Entering event queue @ 2220000004000.  Starting simulation...
Switching CPUs...
Next CPU: AtomicSimpleCPU
switching cpus
info: Entering event queue @ 2221000004000.  Starting simulation...
Switching CPUs...
Next CPU: AtomicSimpleCPU
switching cpus
info: Entering event queue @ 2222000004000.  Starting simulation...
Switching CPUs...
Next CPU: AtomicSimpleCPU
switching cpus
info: Entering event queue @ 2223000004000.  Starting simulation...
Switching CPUs...
Next CPU: AtomicSimpleCPU
switching cpus
info: Entering event queue @ 2224000004000.  Starting simulation...
Switching CPUs...
Next CPU: AtomicSimpleCPU
switching cpus
info: Entering event queue @ 2225000004000.  Starting simulation...
Switching CPUs...
Next CPU: AtomicSimpleCPU
switching cpus
info: Entering event queue @ 2226000004000.  Starting simulation...
Switching CPUs...
Next CPU: AtomicSimpleCPU
switching cpus
info: Entering event queue @ 2227000004000.  Starting simulation...
Switching CPUs...
Next CPU: AtomicSimpleCPU
switching cpus
info: Entering event queue @ 2228000004000.  Starting simulation...
Switching CPUs...
Next CPU: AtomicSimpleCPU
switching cpus
info: Entering event queue @ 2229000004000.  Starting simulation...
Switching CPUs...
Next CPU: AtomicSimpleCPU
switching cpus
info: Entering event queue @ 2230000004000.  Starting simulation...
Switching CPUs...
Next CPU: AtomicSimpleCPU
switching cpus
info: Entering event queue @ 2231000004000.  Starting simulation...
Switching CPUs...
Next CPU: AtomicSimpleCPU
switching cpus
info: Entering event queue @ 2232000004000.  Starting simulation...
Switching CPUs...
Next CPU: AtomicSimpleCPU
switching cpus
info: Entering event queue @ 2233000004000.  Starting simulation...
Switching CPUs...
Next CPU: AtomicSimpleCPU
switching cpus
info: Entering event queue @ 2234000004000.  Starting simulation...
Switching CPUs...
Next CPU: AtomicSimpleCPU
switching cpus
info: Entering event queue @ 2235000004000.  Starting simulation...
Switching CPUs...
Next CPU: AtomicSimpleCPU
switching cpus
info: Entering event queue @ 2236000004000.  Starting simulation...
Switching CPUs...
Next CPU: AtomicSimpleCPU
switching cpus
info: Entering event queue @ 2237000004000.  Starting simulation...
Switching CPUs...
Next CPU: AtomicSimpleCPU
switching cpus
info: Entering event queue @ 2238000004000.  Starting simulation...
Switching CPUs...
Next CPU: AtomicSimpleCPU
switching cpus
info: Entering event queue @ 2239000004000.  Starting simulation...
Switching CPUs...
Next CPU: AtomicSimpleCPU
switching cpus
info: Entering event queue @ 2240000004000.  Starting simulation...
Switching CPUs...
Next CPU: AtomicSimpleCPU
switching cpus
info: Entering event queue @ 2241000004000.  Starting simulation...
Switching CPUs...
Next CPU: AtomicSimpleCPU
switching cpus
info: Entering event queue @ 2242000004000.  Starting simulation...
Switching CPUs...
Next CPU: AtomicSimpleCPU
switching cpus
info: Entering event queue @ 2243000004000.  Starting simulation...
Switching CPUs...
Next CPU: AtomicSimpleCPU
switching cpus
info: Entering event queue @ 2244000004000.  Starting simulation...
Switching CPUs...
Next CPU: AtomicSimpleCPU
switching cpus
info: Entering event queue @ 2245000004000.  Starting simulation...
Switching CPUs...
Next CPU: AtomicSimpleCPU
switching cpus
info: Entering event queue @ 2246000004000.  Starting simulation...
Switching CPUs...
Next CPU: AtomicSimpleCPU
switching cpus
info: Entering event queue @ 2247000004000.  Starting simulation...
Switching CPUs...
Next CPU: AtomicSimpleCPU
switching cpus
info: Entering event queue @ 2248000004000.  Starting simulation...
Switching CPUs...
Next CPU: AtomicSimpleCPU
switching cpus
info: Entering event queue @ 2249000004000.  Starting simulation...
Switching CPUs...
Next CPU: AtomicSimpleCPU
switching cpus
info: Entering event queue @ 2250000004000.  Starting simulation...
Switching CPUs...
Next CPU: AtomicSimpleCPU
switching cpus
info: Entering event queue @ 2251000004000.  Starting simulation...
Switching CPUs...
Next CPU: AtomicSimpleCPU
switching cpus
info: Entering event queue @ 2252000004000.  Starting simulation...
Switching CPUs...
Next CPU: AtomicSimpleCPU
switching cpus
info: Entering event queue @ 2253000004000.  Starting simulation...
Switching CPUs...
Next CPU: AtomicSimpleCPU
switching cpus
info: Entering event queue @ 2254000004000.  Starting simulation...
Switching CPUs...
Next CPU: AtomicSimpleCPU
switching cpus
info: Entering event queue @ 2255000004000.  Starting simulation...
Switching CPUs...
Next CPU: AtomicSimpleCPU
switching cpus
info: Entering event queue @ 2256000004000.  Starting simulation...
Switching CPUs...
Next CPU: AtomicSimpleCPU
switching cpus
info: Entering event queue @ 2257000004000.  Starting simulation...
Switching CPUs...
Next CPU: AtomicSimpleCPU
switching cpus
info: Entering event queue @ 2258000004000.  Starting simulation...
Switching CPUs...
Next CPU: AtomicSimpleCPU
switching cpus
info: Entering event queue @ 2259000004000.  Starting simulation...
Switching CPUs...
Next CPU: AtomicSimpleCPU
switching cpus
info: Entering event queue @ 2260000004000.  Starting simulation...
Switching CPUs...
Next CPU: AtomicSimpleCPU
switching cpus
info: Entering event queue @ 2261000004000.  Starting simulation...
Switching CPUs...
Next CPU: AtomicSimpleCPU
switching cpus
info: Entering event queue @ 2262000004000.  Starting simulation...
Switching CPUs...
Next CPU: AtomicSimpleCPU
switching cpus
info: Entering event queue @ 2263000004000.  Starting simulation...
Switching CPUs...
Next CPU: AtomicSimpleCPU
switching cpus
info: Entering event queue @ 2264000004000.  Starting simulation...
Switching CPUs...
Next CPU: AtomicSimpleCPU
switching cpus
info: Entering event queue @ 2265000004000.  Starting simulation...
Switching CPUs...
Next CPU: AtomicSimpleCPU
switching cpus
info: Entering event queue @ 2266000004000.  Starting simulation...
Switching CPUs...
Next CPU: AtomicSimpleCPU
switching cpus
info: Entering event queue @ 2267000004000.  Starting simulation...
Switching CPUs...
Next CPU: AtomicSimpleCPU
switching cpus
info: Entering event queue @ 2268000004000.  Starting simulation...
Switching CPUs...
Next CPU: AtomicSimpleCPU
switching cpus
info: Entering event queue @ 2269000004000.  Starting simulation...
Switching CPUs...
Next CPU: AtomicSimpleCPU
switching cpus
info: Entering event queue @ 2270000004000.  Starting simulation...
Switching CPUs...
Next CPU: AtomicSimpleCPU
switching cpus
info: Entering event queue @ 2271000004000.  Starting simulation...
Switching CPUs...
Next CPU: AtomicSimpleCPU
switching cpus
info: Entering event queue @ 2272000004000.  Starting simulation...
Switching CPUs...
Next CPU: AtomicSimpleCPU
switching cpus
info: Entering event queue @ 2273000004000.  Starting simulation...
Switching CPUs...
Next CPU: AtomicSimpleCPU
switching cpus
info: Entering event queue @ 2274000004000.  Starting simulation...
Switching CPUs...
Next CPU: AtomicSimpleCPU
switching cpus
info: Entering event queue @ 2275000004000.  Starting simulation...
Switching CPUs...
Next CPU: AtomicSimpleCPU
switching cpus
info: Entering event queue @ 2276000004000.  Starting simulation...
Switching CPUs...
Next CPU: AtomicSimpleCPU
switching cpus
info: Entering event queue @ 2277000004000.  Starting simulation...
Switching CPUs...
Next CPU: AtomicSimpleCPU
switching cpus
info: Entering event queue @ 2278000004000.  Starting simulation...
Switching CPUs...
Next CPU: AtomicSimpleCPU
switching cpus
info: Entering event queue @ 2279000004000.  Starting simulation...
Switching CPUs...
Next CPU: AtomicSimpleCPU
switching cpus
info: Entering event queue @ 2280000004000.  Starting simulation...
Switching CPUs...
Next CPU: AtomicSimpleCPU
switching cpus
info: Entering event queue @ 2281000004000.  Starting simulation...
Switching CPUs...
Next CPU: AtomicSimpleCPU
switching cpus
info: Entering event queue @ 2282000004000.  Starting simulation...
Switching CPUs...
Next CPU: AtomicSimpleCPU
switching cpus
info: Entering event queue @ 2283000004000.  Starting simulation...
Switching CPUs...
Next CPU: AtomicSimpleCPU
switching cpus
info: Entering event queue @ 2284000004000.  Starting simulation...
Switching CPUs...
Next CPU: AtomicSimpleCPU
switching cpus
info: Entering event queue @ 2285000004000.  Starting simulation...
Switching CPUs...
Next CPU: AtomicSimpleCPU
switching cpus
info: Entering event queue @ 2286000004000.  Starting simulation...
Switching CPUs...
Next CPU: AtomicSimpleCPU
switching cpus
info: Entering event queue @ 2287000004000.  Starting simulation...
Switching CPUs...
Next CPU: AtomicSimpleCPU
switching cpus
info: Entering event queue @ 2288000004000.  Starting simulation...
Switching CPUs...
Next CPU: AtomicSimpleCPU
switching cpus
info: Entering event queue @ 2289000004000.  Starting simulation...
Switching CPUs...
Next CPU: AtomicSimpleCPU
switching cpus
info: Entering event queue @ 2290000004000.  Starting simulation...
Switching CPUs...
Next CPU: AtomicSimpleCPU
switching cpus
info: Entering event queue @ 2291000004000.  Starting simulation...
Switching CPUs...
Next CPU: AtomicSimpleCPU
switching cpus
info: Entering event queue @ 2292000004000.  Starting simulation...
Switching CPUs...
Next CPU: AtomicSimpleCPU
switching cpus
info: Entering event queue @ 2293000004000.  Starting simulation...
Switching CPUs...
Next CPU: AtomicSimpleCPU
switching cpus
info: Entering event queue @ 2294000004000.  Starting simulation...
Switching CPUs...
Next CPU: AtomicSimpleCPU
info: Entering event queue @ 2295000004000.  Starting simulation...
switching cpus
info: Entering event queue @ 2295000006000.  Starting simulation...
Switching CPUs...
Next CPU: AtomicSimpleCPU
switching cpus
info: Entering event queue @ 2296000006000.  Starting simulation...
Switching CPUs...
Next CPU: AtomicSimpleCPU
switching cpus
info: Entering event queue @ 2297000006000.  Starting simulation...
Switching CPUs...
Next CPU: AtomicSimpleCPU
switching cpus
info: Entering event queue @ 2298000006000.  Starting simulation...
Switching CPUs...
Next CPU: AtomicSimpleCPU
switching cpus
info: Entering event queue @ 2299000006000.  Starting simulation...
Switching CPUs...
Next CPU: AtomicSimpleCPU
switching cpus
info: Entering event queue @ 2300000006000.  Starting simulation...
Switching CPUs...
Next CPU: AtomicSimpleCPU
switching cpus
info: Entering event queue @ 2301000006000.  Starting simulation...
Switching CPUs...
Next CPU: AtomicSimpleCPU
switching cpus
info: Entering event queue @ 2302000006000.  Starting simulation...
Switching CPUs...
Next CPU: AtomicSimpleCPU
switching cpus
info: Entering event queue @ 2303000006000.  Starting simulation...
Switching CPUs...
Next CPU: AtomicSimpleCPU
switching cpus
info: Entering event queue @ 2304000006000.  Starting simulation...
Switching CPUs...
Next CPU: AtomicSimpleCPU
switching cpus
info: Entering event queue @ 2305000006000.  Starting simulation...
Switching CPUs...
Next CPU: AtomicSimpleCPU
switching cpus
info: Entering event queue @ 2306000006000.  Starting simulation...
Switching CPUs...
Next CPU: AtomicSimpleCPU
switching cpus
info: Entering event queue @ 2307000006000.  Starting simulation...
Switching CPUs...
Next CPU: AtomicSimpleCPU
switching cpus
info: Entering event queue @ 2308000006000.  Starting simulation...
Switching CPUs...
Next CPU: AtomicSimpleCPU
switching cpus
info: Entering event queue @ 2309000006000.  Starting simulation...
Switching CPUs...
Next CPU: AtomicSimpleCPU
switching cpus
info: Entering event queue @ 2310000006000.  Starting simulation...
Switching CPUs...
Next CPU: AtomicSimpleCPU
switching cpus
info: Entering event queue @ 2311000006000.  Starting simulation...
Switching CPUs...
Next CPU: AtomicSimpleCPU
switching cpus
info: Entering event queue @ 2312000006000.  Starting simulation...
Switching CPUs...
Next CPU: AtomicSimpleCPU
info: Entering event queue @ 2313000006000.  Starting simulation...
switching cpus
info: Entering event queue @ 2313000010500.  Starting simulation...
Switching CPUs...
Next CPU: AtomicSimpleCPU
switching cpus
info: Entering event queue @ 2314000010500.  Starting simulation...
Switching CPUs...
Next CPU: AtomicSimpleCPU
switching cpus
info: Entering event queue @ 2315000010500.  Starting simulation...
Switching CPUs...
Next CPU: AtomicSimpleCPU
switching cpus
info: Entering event queue @ 2316000010500.  Starting simulation...
Switching CPUs...
Next CPU: AtomicSimpleCPU
switching cpus
info: Entering event queue @ 2317000010500.  Starting simulation...
Switching CPUs...
Next CPU: AtomicSimpleCPU
switching cpus
info: Entering event queue @ 2318000010500.  Starting simulation...
Switching CPUs...
Next CPU: AtomicSimpleCPU
switching cpus
info: Entering event queue @ 2319000010500.  Starting simulation...
Switching CPUs...
Next CPU: AtomicSimpleCPU
switching cpus
info: Entering event queue @ 2320000010500.  Starting simulation...
Switching CPUs...
Next CPU: AtomicSimpleCPU
switching cpus
info: Entering event queue @ 2321000010500.  Starting simulation...
Switching CPUs...
Next CPU: AtomicSimpleCPU
switching cpus
info: Entering event queue @ 2322000010500.  Starting simulation...
Switching CPUs...
Next CPU: AtomicSimpleCPU
switching cpus
info: Entering event queue @ 2323000010500.  Starting simulation...
Switching CPUs...
Next CPU: AtomicSimpleCPU
switching cpus
info: Entering event queue @ 2324000010500.  Starting simulation...
Switching CPUs...
Next CPU: AtomicSimpleCPU
switching cpus
info: Entering event queue @ 2325000010500.  Starting simulation...
Switching CPUs...
Next CPU: AtomicSimpleCPU
switching cpus
info: Entering event queue @ 2326000010500.  Starting simulation...
Switching CPUs...
Next CPU: AtomicSimpleCPU
switching cpus
info: Entering event queue @ 2327000010500.  Starting simulation...
Switching CPUs...
Next CPU: AtomicSimpleCPU
switching cpus
info: Entering event queue @ 2328000010500.  Starting simulation...
Switching CPUs...
Next CPU: AtomicSimpleCPU
switching cpus
info: Entering event queue @ 2329000010500.  Starting simulation...
Switching CPUs...
Next CPU: AtomicSimpleCPU
switching cpus
info: Entering event queue @ 2330000010500.  Starting simulation...
Switching CPUs...
Next CPU: AtomicSimpleCPU
switching cpus
info: Entering event queue @ 2331000010500.  Starting simulation...
Switching CPUs...
Next CPU: AtomicSimpleCPU
switching cpus
info: Entering event queue @ 2332000010500.  Starting simulation...
