Redirecting stdout to build/ALPHA/tests/opt/long/fs/10.linux-boot/alpha/linux/tsunami-switcheroo-full/simout
Redirecting stderr to build/ALPHA/tests/opt/long/fs/10.linux-boot/alpha/linux/tsunami-switcheroo-full/simerr
gem5 Simulator System.  http://gem5.org
gem5 is copyrighted software; use the --copyright option for details.

gem5 compiled Jul 19 2016 12:23:51
gem5 started Jul 19 2016 12:24:24
gem5 executing on e108600-lin, pid 39575
command line: /work/curdun01/gem5-external.hg/build/ALPHA/gem5.opt -d build/ALPHA/tests/opt/long/fs/10.linux-boot/alpha/linux/tsunami-switcheroo-full -re /work/curdun01/gem5-external.hg/tests/testing/../run.py long/fs/10.linux-boot/alpha/linux/tsunami-switcheroo-full

Global frequency set at 1000000000000 ticks per second
      0: system.tsunami.io.rtc: Real-time clock set to Thu Jan  1 00:00:00 2009
