
---------- Begin Simulation Statistics ----------
sim_seconds                                  1.842592                       # Number of seconds simulated
sim_ticks                                1842591955000                       # Number of ticks simulated
final_tick                               1842591955000                       # Number of ticks from beginning of simulation (restored from checkpoints and never reset)
sim_freq                                 1000000000000                       # Frequency of simulated ticks
host_inst_rate                                 212167                       # Simulator instruction rate (inst/s)
host_op_rate                                   212167                       # Simulator op (including micro ops) rate (op/s)
host_tick_rate                             5858461865                       # Simulator tick rate (ticks/s)
host_mem_usage                                 373744                       # Number of bytes of host memory used
host_seconds                                   314.52                       # Real time elapsed on the host
sim_insts                                    66730424                       # Number of instructions simulated
sim_ops                                      66730424                       # Number of ops (including micro ops) simulated
system.voltage_domain.voltage                       1                       # Voltage in Volts
system.clk_domain.clock                          1000                       # Clock period in ticks
system.physmem.bytes_read::cpu0.inst           480192                       # Number of bytes read from this memory
system.physmem.bytes_read::cpu0.data         20072256                       # Number of bytes read from this memory
system.physmem.bytes_read::cpu1.inst           146880                       # Number of bytes read from this memory
system.physmem.bytes_read::cpu1.data          2246976                       # Number of bytes read from this memory
system.physmem.bytes_read::cpu2.inst           294016                       # Number of bytes read from this memory
system.physmem.bytes_read::cpu2.data          2555648                       # Number of bytes read from this memory
system.physmem.bytes_read::tsunami.ide            960                       # Number of bytes read from this memory
system.physmem.bytes_read::total             25796928                       # Number of bytes read from this memory
system.physmem.bytes_inst_read::cpu0.inst       480192                       # Number of instructions bytes read from this memory
system.physmem.bytes_inst_read::cpu1.inst       146880                       # Number of instructions bytes read from this memory
system.physmem.bytes_inst_read::cpu2.inst       294016                       # Number of instructions bytes read from this memory
system.physmem.bytes_inst_read::total          921088                       # Number of instructions bytes read from this memory
system.physmem.bytes_written::writebacks      7481920                       # Number of bytes written to this memory
system.physmem.bytes_written::total           7481920                       # Number of bytes written to this memory
system.physmem.num_reads::cpu0.inst              7503                       # Number of read requests responded to by this memory
system.physmem.num_reads::cpu0.data            313629                       # Number of read requests responded to by this memory
system.physmem.num_reads::cpu1.inst              2295                       # Number of read requests responded to by this memory
system.physmem.num_reads::cpu1.data             35109                       # Number of read requests responded to by this memory
system.physmem.num_reads::cpu2.inst              4594                       # Number of read requests responded to by this memory
system.physmem.num_reads::cpu2.data             39932                       # Number of read requests responded to by this memory
system.physmem.num_reads::tsunami.ide              15                       # Number of read requests responded to by this memory
system.physmem.num_reads::total                403077                       # Number of read requests responded to by this memory
system.physmem.num_writes::writebacks          116905                       # Number of write requests responded to by this memory
system.physmem.num_writes::total               116905                       # Number of write requests responded to by this memory
system.physmem.bw_read::cpu0.inst              260607                       # Total read bandwidth from this memory (bytes/s)
system.physmem.bw_read::cpu0.data            10893489                       # Total read bandwidth from this memory (bytes/s)
system.physmem.bw_read::cpu1.inst               79714                       # Total read bandwidth from this memory (bytes/s)
system.physmem.bw_read::cpu1.data             1219465                       # Total read bandwidth from this memory (bytes/s)
system.physmem.bw_read::cpu2.inst              159567                       # Total read bandwidth from this memory (bytes/s)
system.physmem.bw_read::cpu2.data             1386985                       # Total read bandwidth from this memory (bytes/s)
system.physmem.bw_read::tsunami.ide               521                       # Total read bandwidth from this memory (bytes/s)
system.physmem.bw_read::total                14000348                       # Total read bandwidth from this memory (bytes/s)
system.physmem.bw_inst_read::cpu0.inst         260607                       # Instruction read bandwidth from this memory (bytes/s)
system.physmem.bw_inst_read::cpu1.inst          79714                       # Instruction read bandwidth from this memory (bytes/s)
system.physmem.bw_inst_read::cpu2.inst         159567                       # Instruction read bandwidth from this memory (bytes/s)
system.physmem.bw_inst_read::total             499887                       # Instruction read bandwidth from this memory (bytes/s)
system.physmem.bw_write::writebacks           4060541                       # Write bandwidth from this memory (bytes/s)
system.physmem.bw_write::total                4060541                       # Write bandwidth from this memory (bytes/s)
system.physmem.bw_total::writebacks           4060541                       # Total bandwidth to/from this memory (bytes/s)
system.physmem.bw_total::cpu0.inst             260607                       # Total bandwidth to/from this memory (bytes/s)
system.physmem.bw_total::cpu0.data           10893489                       # Total bandwidth to/from this memory (bytes/s)
system.physmem.bw_total::cpu1.inst              79714                       # Total bandwidth to/from this memory (bytes/s)
system.physmem.bw_total::cpu1.data            1219465                       # Total bandwidth to/from this memory (bytes/s)
system.physmem.bw_total::cpu2.inst             159567                       # Total bandwidth to/from this memory (bytes/s)
system.physmem.bw_total::cpu2.data            1386985                       # Total bandwidth to/from this memory (bytes/s)
system.physmem.bw_total::tsunami.ide              521                       # Total bandwidth to/from this memory (bytes/s)
system.physmem.bw_total::total               18060889                       # Total bandwidth to/from this memory (bytes/s)
system.physmem.readReqs                         81945                       # Number of read requests accepted
system.physmem.writeReqs                        62218                       # Number of write requests accepted
system.physmem.readBursts                       81945                       # Number of DRAM read bursts, including those serviced by the write queue
system.physmem.writeBursts                      62218                       # Number of DRAM write bursts, including those merged in the write queue
system.physmem.bytesReadDRAM                  5243136                       # Total number of bytes read from DRAM
system.physmem.bytesReadWrQ                      1344                       # Total number of bytes read from write queue
system.physmem.bytesWritten                   3931008                       # Total number of bytes written to DRAM
system.physmem.bytesReadSys                   5244480                       # Total read bytes from the system interface side
system.physmem.bytesWrittenSys                3981952                       # Total written bytes from the system interface side
system.physmem.servicedByWrQ                       21                       # Number of DRAM read bursts serviced by the write queue
system.physmem.mergedWrBursts                     773                       # Number of DRAM write bursts merged with an existing one
system.physmem.neitherReadNorWriteReqs             65                       # Number of requests that are neither read nor write
system.physmem.perBankRdBursts::0                5216                       # Per bank write bursts
system.physmem.perBankRdBursts::1                4952                       # Per bank write bursts
system.physmem.perBankRdBursts::2                4966                       # Per bank write bursts
system.physmem.perBankRdBursts::3                5032                       # Per bank write bursts
system.physmem.perBankRdBursts::4                5011                       # Per bank write bursts
system.physmem.perBankRdBursts::5                5077                       # Per bank write bursts
system.physmem.perBankRdBursts::6                5139                       # Per bank write bursts
system.physmem.perBankRdBursts::7                5153                       # Per bank write bursts
system.physmem.perBankRdBursts::8                5336                       # Per bank write bursts
system.physmem.perBankRdBursts::9                5012                       # Per bank write bursts
system.physmem.perBankRdBursts::10               5284                       # Per bank write bursts
system.physmem.perBankRdBursts::11               5137                       # Per bank write bursts
system.physmem.perBankRdBursts::12               4814                       # Per bank write bursts
system.physmem.perBankRdBursts::13               5083                       # Per bank write bursts
system.physmem.perBankRdBursts::14               5582                       # Per bank write bursts
system.physmem.perBankRdBursts::15               5130                       # Per bank write bursts
system.physmem.perBankWrBursts::0                3820                       # Per bank write bursts
system.physmem.perBankWrBursts::1                3672                       # Per bank write bursts
system.physmem.perBankWrBursts::2                3762                       # Per bank write bursts
system.physmem.perBankWrBursts::3                4075                       # Per bank write bursts
system.physmem.perBankWrBursts::4                3759                       # Per bank write bursts
system.physmem.perBankWrBursts::5                3520                       # Per bank write bursts
system.physmem.perBankWrBursts::6                4123                       # Per bank write bursts
system.physmem.perBankWrBursts::7                3706                       # Per bank write bursts
system.physmem.perBankWrBursts::8                4379                       # Per bank write bursts
system.physmem.perBankWrBursts::9                3471                       # Per bank write bursts
system.physmem.perBankWrBursts::10               3889                       # Per bank write bursts
system.physmem.perBankWrBursts::11               3981                       # Per bank write bursts
system.physmem.perBankWrBursts::12               3541                       # Per bank write bursts
system.physmem.perBankWrBursts::13               3879                       # Per bank write bursts
system.physmem.perBankWrBursts::14               4169                       # Per bank write bursts
system.physmem.perBankWrBursts::15               3676                       # Per bank write bursts
system.physmem.numRdRetry                           0                       # Number of times read queue was full causing retry
system.physmem.numWrRetry                           0                       # Number of times write queue was full causing retry
system.physmem.totGap                    1841579678500                       # Total gap between requests
system.physmem.readPktSize::0                       0                       # Read request sizes (log2)
system.physmem.readPktSize::1                       0                       # Read request sizes (log2)
system.physmem.readPktSize::2                       0                       # Read request sizes (log2)
system.physmem.readPktSize::3                       0                       # Read request sizes (log2)
system.physmem.readPktSize::4                       0                       # Read request sizes (log2)
system.physmem.readPktSize::5                       0                       # Read request sizes (log2)
system.physmem.readPktSize::6                   81945                       # Read request sizes (log2)
system.physmem.writePktSize::0                      0                       # Write request sizes (log2)
system.physmem.writePktSize::1                      0                       # Write request sizes (log2)
system.physmem.writePktSize::2                      0                       # Write request sizes (log2)
system.physmem.writePktSize::3                      0                       # Write request sizes (log2)
system.physmem.writePktSize::4                      0                       # Write request sizes (log2)
system.physmem.writePktSize::5                      0                       # Write request sizes (log2)
system.physmem.writePktSize::6                  62218                       # Write request sizes (log2)
system.physmem.rdQLenPdf::0                     65839                       # What read queue length does an incoming req see
system.physmem.rdQLenPdf::1                      7250                       # What read queue length does an incoming req see
system.physmem.rdQLenPdf::2                      7148                       # What read queue length does an incoming req see
system.physmem.rdQLenPdf::3                      1657                       # What read queue length does an incoming req see
system.physmem.rdQLenPdf::4                        20                       # What read queue length does an incoming req see
system.physmem.rdQLenPdf::5                         1                       # What read queue length does an incoming req see
system.physmem.rdQLenPdf::6                         1                       # What read queue length does an incoming req see
system.physmem.rdQLenPdf::7                         1                       # What read queue length does an incoming req see
system.physmem.rdQLenPdf::8                         1                       # What read queue length does an incoming req see
system.physmem.rdQLenPdf::9                         1                       # What read queue length does an incoming req see
system.physmem.rdQLenPdf::10                        1                       # What read queue length does an incoming req see
system.physmem.rdQLenPdf::11                        1                       # What read queue length does an incoming req see
system.physmem.rdQLenPdf::12                        1                       # What read queue length does an incoming req see
system.physmem.rdQLenPdf::13                        1                       # What read queue length does an incoming req see
system.physmem.rdQLenPdf::14                        1                       # What read queue length does an incoming req see
system.physmem.rdQLenPdf::15                        0                       # What read queue length does an incoming req see
system.physmem.rdQLenPdf::16                        0                       # What read queue length does an incoming req see
system.physmem.rdQLenPdf::17                        0                       # What read queue length does an incoming req see
system.physmem.rdQLenPdf::18                        0                       # What read queue length does an incoming req see
system.physmem.rdQLenPdf::19                        0                       # What read queue length does an incoming req see
system.physmem.rdQLenPdf::20                        0                       # What read queue length does an incoming req see
system.physmem.rdQLenPdf::21                        0                       # What read queue length does an incoming req see
system.physmem.rdQLenPdf::22                        0                       # What read queue length does an incoming req see
system.physmem.rdQLenPdf::23                        0                       # What read queue length does an incoming req see
system.physmem.rdQLenPdf::24                        0                       # What read queue length does an incoming req see
system.physmem.rdQLenPdf::25                        0                       # What read queue length does an incoming req see
system.physmem.rdQLenPdf::26                        0                       # What read queue length does an incoming req see
system.physmem.rdQLenPdf::27                        0                       # What read queue length does an incoming req see
system.physmem.rdQLenPdf::28                        0                       # What read queue length does an incoming req see
system.physmem.rdQLenPdf::29                        0                       # What read queue length does an incoming req see
system.physmem.rdQLenPdf::30                        0                       # What read queue length does an incoming req see
system.physmem.rdQLenPdf::31                        0                       # What read queue length does an incoming req see
system.physmem.wrQLenPdf::0                        78                       # What write queue length does an incoming req see
system.physmem.wrQLenPdf::1                        55                       # What write queue length does an incoming req see
system.physmem.wrQLenPdf::2                        46                       # What write queue length does an incoming req see
system.physmem.wrQLenPdf::3                        44                       # What write queue length does an incoming req see
system.physmem.wrQLenPdf::4                        43                       # What write queue length does an incoming req see
system.physmem.wrQLenPdf::5                        42                       # What write queue length does an incoming req see
system.physmem.wrQLenPdf::6                        42                       # What write queue length does an incoming req see
system.physmem.wrQLenPdf::7                        37                       # What write queue length does an incoming req see
system.physmem.wrQLenPdf::8                        36                       # What write queue length does an incoming req see
system.physmem.wrQLenPdf::9                        36                       # What write queue length does an incoming req see
system.physmem.wrQLenPdf::10                       36                       # What write queue length does an incoming req see
system.physmem.wrQLenPdf::11                       36                       # What write queue length does an incoming req see
system.physmem.wrQLenPdf::12                       36                       # What write queue length does an incoming req see
system.physmem.wrQLenPdf::13                       36                       # What write queue length does an incoming req see
system.physmem.wrQLenPdf::14                       36                       # What write queue length does an incoming req see
system.physmem.wrQLenPdf::15                      918                       # What write queue length does an incoming req see
system.physmem.wrQLenPdf::16                     1778                       # What write queue length does an incoming req see
system.physmem.wrQLenPdf::17                     2658                       # What write queue length does an incoming req see
system.physmem.wrQLenPdf::18                     3188                       # What write queue length does an incoming req see
system.physmem.wrQLenPdf::19                     3730                       # What write queue length does an incoming req see
system.physmem.wrQLenPdf::20                     4200                       # What write queue length does an incoming req see
system.physmem.wrQLenPdf::21                     4377                       # What write queue length does an incoming req see
system.physmem.wrQLenPdf::22                     4782                       # What write queue length does an incoming req see
system.physmem.wrQLenPdf::23                     4649                       # What write queue length does an incoming req see
system.physmem.wrQLenPdf::24                     4691                       # What write queue length does an incoming req see
system.physmem.wrQLenPdf::25                     4188                       # What write queue length does an incoming req see
system.physmem.wrQLenPdf::26                     3896                       # What write queue length does an incoming req see
system.physmem.wrQLenPdf::27                     3337                       # What write queue length does an incoming req see
system.physmem.wrQLenPdf::28                     3243                       # What write queue length does an incoming req see
system.physmem.wrQLenPdf::29                     2582                       # What write queue length does an incoming req see
system.physmem.wrQLenPdf::30                     2407                       # What write queue length does an incoming req see
system.physmem.wrQLenPdf::31                     2339                       # What write queue length does an incoming req see
system.physmem.wrQLenPdf::32                     2265                       # What write queue length does an incoming req see
system.physmem.wrQLenPdf::33                      139                       # What write queue length does an incoming req see
system.physmem.wrQLenPdf::34                      125                       # What write queue length does an incoming req see
system.physmem.wrQLenPdf::35                      122                       # What write queue length does an incoming req see
system.physmem.wrQLenPdf::36                      117                       # What write queue length does an incoming req see
system.physmem.wrQLenPdf::37                       97                       # What write queue length does an incoming req see
system.physmem.wrQLenPdf::38                      102                       # What write queue length does an incoming req see
system.physmem.wrQLenPdf::39                       87                       # What write queue length does an incoming req see
system.physmem.wrQLenPdf::40                       91                       # What write queue length does an incoming req see
system.physmem.wrQLenPdf::41                       80                       # What write queue length does an incoming req see
system.physmem.wrQLenPdf::42                       82                       # What write queue length does an incoming req see
system.physmem.wrQLenPdf::43                       81                       # What write queue length does an incoming req see
system.physmem.wrQLenPdf::44                       76                       # What write queue length does an incoming req see
system.physmem.wrQLenPdf::45                       55                       # What write queue length does an incoming req see
system.physmem.wrQLenPdf::46                       50                       # What write queue length does an incoming req see
system.physmem.wrQLenPdf::47                       44                       # What write queue length does an incoming req see
system.physmem.wrQLenPdf::48                       46                       # What write queue length does an incoming req see
system.physmem.wrQLenPdf::49                       44                       # What write queue length does an incoming req see
system.physmem.wrQLenPdf::50                       42                       # What write queue length does an incoming req see
system.physmem.wrQLenPdf::51                       28                       # What write queue length does an incoming req see
system.physmem.wrQLenPdf::52                       24                       # What write queue length does an incoming req see
system.physmem.wrQLenPdf::53                       19                       # What write queue length does an incoming req see
system.physmem.wrQLenPdf::54                       16                       # What write queue length does an incoming req see
system.physmem.wrQLenPdf::55                        7                       # What write queue length does an incoming req see
system.physmem.wrQLenPdf::56                        4                       # What write queue length does an incoming req see
system.physmem.wrQLenPdf::57                        0                       # What write queue length does an incoming req see
system.physmem.wrQLenPdf::58                        0                       # What write queue length does an incoming req see
system.physmem.wrQLenPdf::59                        0                       # What write queue length does an incoming req see
system.physmem.wrQLenPdf::60                        0                       # What write queue length does an incoming req see
system.physmem.wrQLenPdf::61                        0                       # What write queue length does an incoming req see
system.physmem.wrQLenPdf::62                        0                       # What write queue length does an incoming req see
system.physmem.wrQLenPdf::63                        0                       # What write queue length does an incoming req see
system.physmem.bytesPerActivate::samples        22279                       # Bytes accessed per row activation
system.physmem.bytesPerActivate::mean      411.784371                       # Bytes accessed per row activation
system.physmem.bytesPerActivate::gmean     233.119875                       # Bytes accessed per row activation
system.physmem.bytesPerActivate::stdev     394.569349                       # Bytes accessed per row activation
system.physmem.bytesPerActivate::0-127           7102     31.88%     31.88% # Bytes accessed per row activation
system.physmem.bytesPerActivate::128-255         4721     21.19%     53.07% # Bytes accessed per row activation
system.physmem.bytesPerActivate::256-383         1798      8.07%     61.14% # Bytes accessed per row activation
system.physmem.bytesPerActivate::384-511         1010      4.53%     65.67% # Bytes accessed per row activation
system.physmem.bytesPerActivate::512-639          955      4.29%     69.96% # Bytes accessed per row activation
system.physmem.bytesPerActivate::640-767          478      2.15%     72.10% # Bytes accessed per row activation
system.physmem.bytesPerActivate::768-895          370      1.66%     73.76% # Bytes accessed per row activation
system.physmem.bytesPerActivate::896-1023          364      1.63%     75.40% # Bytes accessed per row activation
system.physmem.bytesPerActivate::1024-1151         5481     24.60%    100.00% # Bytes accessed per row activation
system.physmem.bytesPerActivate::total          22279                       # Bytes accessed per row activation
system.physmem.rdPerTurnAround::samples          2129                       # Reads before turning the bus around for writes
system.physmem.rdPerTurnAround::mean        38.475810                       # Reads before turning the bus around for writes
system.physmem.rdPerTurnAround::stdev     1006.180082                       # Reads before turning the bus around for writes
system.physmem.rdPerTurnAround::0-2047           2127     99.91%     99.91% # Reads before turning the bus around for writes
system.physmem.rdPerTurnAround::2048-4095            1      0.05%     99.95% # Reads before turning the bus around for writes
system.physmem.rdPerTurnAround::45056-47103            1      0.05%    100.00% # Reads before turning the bus around for writes
system.physmem.rdPerTurnAround::total            2129                       # Reads before turning the bus around for writes
system.physmem.wrPerTurnAround::samples          2129                       # Writes before turning the bus around for reads
system.physmem.wrPerTurnAround::mean        28.850164                       # Writes before turning the bus around for reads
system.physmem.wrPerTurnAround::gmean       20.675931                       # Writes before turning the bus around for reads
system.physmem.wrPerTurnAround::stdev       36.499081                       # Writes before turning the bus around for reads
system.physmem.wrPerTurnAround::0-3                34      1.60%      1.60% # Writes before turning the bus around for reads
system.physmem.wrPerTurnAround::4-7                 7      0.33%      1.93% # Writes before turning the bus around for reads
system.physmem.wrPerTurnAround::8-11                1      0.05%      1.97% # Writes before turning the bus around for reads
system.physmem.wrPerTurnAround::12-15               1      0.05%      2.02% # Writes before turning the bus around for reads
system.physmem.wrPerTurnAround::16-19            1615     75.86%     77.88% # Writes before turning the bus around for reads
system.physmem.wrPerTurnAround::20-23              35      1.64%     79.52% # Writes before turning the bus around for reads
system.physmem.wrPerTurnAround::24-27              10      0.47%     79.99% # Writes before turning the bus around for reads
system.physmem.wrPerTurnAround::28-31              84      3.95%     83.94% # Writes before turning the bus around for reads
system.physmem.wrPerTurnAround::32-35              64      3.01%     86.94% # Writes before turning the bus around for reads
system.physmem.wrPerTurnAround::36-39              45      2.11%     89.06% # Writes before turning the bus around for reads
system.physmem.wrPerTurnAround::40-43               9      0.42%     89.48% # Writes before turning the bus around for reads
system.physmem.wrPerTurnAround::44-47              11      0.52%     90.00% # Writes before turning the bus around for reads
system.physmem.wrPerTurnAround::48-51              35      1.64%     91.64% # Writes before turning the bus around for reads
system.physmem.wrPerTurnAround::52-55               5      0.23%     91.87% # Writes before turning the bus around for reads
system.physmem.wrPerTurnAround::56-59              21      0.99%     92.86% # Writes before turning the bus around for reads
system.physmem.wrPerTurnAround::60-63               2      0.09%     92.95% # Writes before turning the bus around for reads
system.physmem.wrPerTurnAround::64-67               3      0.14%     93.10% # Writes before turning the bus around for reads
system.physmem.wrPerTurnAround::68-71               2      0.09%     93.19% # Writes before turning the bus around for reads
system.physmem.wrPerTurnAround::72-75               5      0.23%     93.42% # Writes before turning the bus around for reads
system.physmem.wrPerTurnAround::80-83               1      0.05%     93.47% # Writes before turning the bus around for reads
system.physmem.wrPerTurnAround::84-87               4      0.19%     93.66% # Writes before turning the bus around for reads
system.physmem.wrPerTurnAround::88-91               1      0.05%     93.71% # Writes before turning the bus around for reads
system.physmem.wrPerTurnAround::96-99               3      0.14%     93.85% # Writes before turning the bus around for reads
system.physmem.wrPerTurnAround::100-103             4      0.19%     94.03% # Writes before turning the bus around for reads
system.physmem.wrPerTurnAround::108-111             1      0.05%     94.08% # Writes before turning the bus around for reads
system.physmem.wrPerTurnAround::112-115             1      0.05%     94.13% # Writes before turning the bus around for reads
system.physmem.wrPerTurnAround::128-131             6      0.28%     94.41% # Writes before turning the bus around for reads
system.physmem.wrPerTurnAround::132-135             2      0.09%     94.50% # Writes before turning the bus around for reads
system.physmem.wrPerTurnAround::136-139             1      0.05%     94.55% # Writes before turning the bus around for reads
system.physmem.wrPerTurnAround::140-143            15      0.70%     95.26% # Writes before turning the bus around for reads
system.physmem.wrPerTurnAround::144-147             3      0.14%     95.40% # Writes before turning the bus around for reads
system.physmem.wrPerTurnAround::148-151             2      0.09%     95.49% # Writes before turning the bus around for reads
system.physmem.wrPerTurnAround::152-155             1      0.05%     95.54% # Writes before turning the bus around for reads
system.physmem.wrPerTurnAround::156-159             4      0.19%     95.73% # Writes before turning the bus around for reads
system.physmem.wrPerTurnAround::160-163            43      2.02%     97.75% # Writes before turning the bus around for reads
system.physmem.wrPerTurnAround::164-167             1      0.05%     97.79% # Writes before turning the bus around for reads
system.physmem.wrPerTurnAround::168-171            11      0.52%     98.31% # Writes before turning the bus around for reads
system.physmem.wrPerTurnAround::172-175             3      0.14%     98.45% # Writes before turning the bus around for reads
system.physmem.wrPerTurnAround::176-179             3      0.14%     98.59% # Writes before turning the bus around for reads
system.physmem.wrPerTurnAround::180-183             2      0.09%     98.68% # Writes before turning the bus around for reads
system.physmem.wrPerTurnAround::184-187             6      0.28%     98.97% # Writes before turning the bus around for reads
system.physmem.wrPerTurnAround::188-191             4      0.19%     99.15% # Writes before turning the bus around for reads
system.physmem.wrPerTurnAround::192-195             5      0.23%     99.39% # Writes before turning the bus around for reads
system.physmem.wrPerTurnAround::196-199             3      0.14%     99.53% # Writes before turning the bus around for reads
system.physmem.wrPerTurnAround::200-203             3      0.14%     99.67% # Writes before turning the bus around for reads
system.physmem.wrPerTurnAround::208-211             3      0.14%     99.81% # Writes before turning the bus around for reads
system.physmem.wrPerTurnAround::224-227             2      0.09%     99.91% # Writes before turning the bus around for reads
system.physmem.wrPerTurnAround::228-231             1      0.05%     99.95% # Writes before turning the bus around for reads
system.physmem.wrPerTurnAround::244-247             1      0.05%    100.00% # Writes before turning the bus around for reads
system.physmem.wrPerTurnAround::total            2129                       # Writes before turning the bus around for reads
system.physmem.totQLat                      814366500                       # Total ticks spent queuing
system.physmem.totMemAccLat                2350441500                       # Total ticks spent from burst creation until serviced by the DRAM
system.physmem.totBusLat                    409620000                       # Total ticks spent in databus transfers
system.physmem.avgQLat                        9940.51                       # Average queueing delay per DRAM burst
system.physmem.avgBusLat                      5000.00                       # Average bus latency per DRAM burst
system.physmem.avgMemAccLat                  28690.51                       # Average memory access latency per DRAM burst
system.physmem.avgRdBW                           2.85                       # Average DRAM read bandwidth in MiByte/s
system.physmem.avgWrBW                           2.13                       # Average achieved write bandwidth in MiByte/s
system.physmem.avgRdBWSys                        2.85                       # Average system read bandwidth in MiByte/s
system.physmem.avgWrBWSys                        2.16                       # Average system write bandwidth in MiByte/s
system.physmem.peakBW                        12800.00                       # Theoretical peak bandwidth in MiByte/s
system.physmem.busUtil                           0.04                       # Data bus utilization in percentage
system.physmem.busUtilRead                       0.02                       # Data bus utilization in percentage for reads
system.physmem.busUtilWrite                      0.02                       # Data bus utilization in percentage for writes
system.physmem.avgRdQLen                         1.07                       # Average read queue length when enqueuing
system.physmem.avgWrQLen                         8.28                       # Average write queue length when enqueuing
system.physmem.readRowHits                      70260                       # Number of row buffer hits during reads
system.physmem.writeRowHits                     50807                       # Number of row buffer hits during writes
system.physmem.readRowHitRate                   85.76                       # Row buffer hit rate for reads
system.physmem.writeRowHitRate                  82.69                       # Row buffer hit rate for writes
system.physmem.avgGap                     12774287.98                       # Average gap between requests
system.physmem.pageHitRate                      84.44                       # Row buffer hit rate, read and write combined
system.physmem_0.actEnergy                   83779920                       # Energy for activate commands per rank (pJ)
system.physmem_0.preEnergy                   45618375                       # Energy for precharge commands per rank (pJ)
system.physmem_0.readEnergy                 316258800                       # Energy for read commands per rank (pJ)
system.physmem_0.writeEnergy                197231760                       # Energy for write commands per rank (pJ)
system.physmem_0.refreshEnergy            89126157120                       # Energy for refresh commands per rank (pJ)
system.physmem_0.actBackEnergy            35724246975                       # Energy for active background per rank (pJ)
system.physmem_0.preBackEnergy           802806617250                       # Energy for precharge background per rank (pJ)
system.physmem_0.totalEnergy             928299910200                       # Total energy per rank (pJ)
system.physmem_0.averagePower              667.726630                       # Core power per rank (mW)
system.physmem_0.memoryStateTime::IDLE   1309959191250                       # Time in different power states
system.physmem_0.memoryStateTime::REF     45565260000                       # Time in different power states
system.physmem_0.memoryStateTime::PRE_PDN            0                       # Time in different power states
system.physmem_0.memoryStateTime::ACT      9222216250                       # Time in different power states
system.physmem_0.memoryStateTime::ACT_PDN            0                       # Time in different power states
system.physmem_1.actEnergy                   84649320                       # Energy for activate commands per rank (pJ)
system.physmem_1.preEnergy                   46030875                       # Energy for precharge commands per rank (pJ)
system.physmem_1.readEnergy                 322748400                       # Energy for read commands per rank (pJ)
system.physmem_1.writeEnergy                200782800                       # Energy for write commands per rank (pJ)
system.physmem_1.refreshEnergy            89126157120                       # Energy for refresh commands per rank (pJ)
system.physmem_1.actBackEnergy            35431940430                       # Energy for active background per rank (pJ)
system.physmem_1.preBackEnergy           799831550250                       # Energy for precharge background per rank (pJ)
system.physmem_1.totalEnergy             925043859195                       # Total energy per rank (pJ)
system.physmem_1.averagePower              667.972279                       # Core power per rank (mW)
system.physmem_1.memoryStateTime::IDLE   1310405285500                       # Time in different power states
system.physmem_1.memoryStateTime::REF     45565260000                       # Time in different power states
system.physmem_1.memoryStateTime::PRE_PDN            0                       # Time in different power states
system.physmem_1.memoryStateTime::ACT      8771812500                       # Time in different power states
system.physmem_1.memoryStateTime::ACT_PDN            0                       # Time in different power states
system.cpu_clk_domain.clock                       500                       # Clock period in ticks
system.cpu0.dtb.fetch_hits                          0                       # ITB hits
system.cpu0.dtb.fetch_misses                        0                       # ITB misses
system.cpu0.dtb.fetch_acv                           0                       # ITB acv
system.cpu0.dtb.fetch_accesses                      0                       # ITB accesses
system.cpu0.dtb.read_hits                     4841130                       # DTB read hits
system.cpu0.dtb.read_misses                      6162                       # DTB read misses
system.cpu0.dtb.read_acv                          126                       # DTB read access violations
system.cpu0.dtb.read_accesses                  429577                       # DTB read accesses
system.cpu0.dtb.write_hits                    3448228                       # DTB write hits
system.cpu0.dtb.write_misses                      688                       # DTB write misses
system.cpu0.dtb.write_acv                          85                       # DTB write access violations
system.cpu0.dtb.write_accesses                 165228                       # DTB write accesses
system.cpu0.dtb.data_hits                     8289358                       # DTB hits
system.cpu0.dtb.data_misses                      6850                       # DTB misses
system.cpu0.dtb.data_acv                          211                       # DTB access violations
system.cpu0.dtb.data_accesses                  594805                       # DTB accesses
system.cpu0.itb.fetch_hits                    2744473                       # ITB hits
system.cpu0.itb.fetch_misses                     3071                       # ITB misses
system.cpu0.itb.fetch_acv                         104                       # ITB acv
system.cpu0.itb.fetch_accesses                2747544                       # ITB accesses
system.cpu0.itb.read_hits                           0                       # DTB read hits
system.cpu0.itb.read_misses                         0                       # DTB read misses
system.cpu0.itb.read_acv                            0                       # DTB read access violations
system.cpu0.itb.read_accesses                       0                       # DTB read accesses
system.cpu0.itb.write_hits                          0                       # DTB write hits
system.cpu0.itb.write_misses                        0                       # DTB write misses
system.cpu0.itb.write_acv                           0                       # DTB write access violations
system.cpu0.itb.write_accesses                      0                       # DTB write accesses
system.cpu0.itb.data_hits                           0                       # DTB hits
system.cpu0.itb.data_misses                         0                       # DTB misses
system.cpu0.itb.data_acv                            0                       # DTB access violations
system.cpu0.itb.data_accesses                       0                       # DTB accesses
system.cpu0.numCycles                       929111283                       # number of cpu cycles simulated
system.cpu0.numWorkItemsStarted                     0                       # number of work items this cpu started
system.cpu0.numWorkItemsCompleted                   0                       # number of work items this cpu completed
system.cpu0.committedInsts                   30392058                       # Number of instructions committed
system.cpu0.committedOps                     30392058                       # Number of ops (including micro ops) committed
system.cpu0.num_int_alu_accesses             28296981                       # Number of integer alu accesses
system.cpu0.num_fp_alu_accesses                165313                       # Number of float alu accesses
system.cpu0.num_func_calls                     800920                       # number of times a function call or return occured
system.cpu0.num_conditional_control_insts      3653475                       # number of instructions that are conditional controls
system.cpu0.num_int_insts                    28296981                       # number of integer instructions
system.cpu0.num_fp_insts                       165313                       # number of float instructions
system.cpu0.num_int_register_reads           38988704                       # number of times the integer registers were read
system.cpu0.num_int_register_writes          20831324                       # number of times the integer registers were written
system.cpu0.num_fp_register_reads               85482                       # number of times the floating registers were read
system.cpu0.num_fp_register_writes              86956                       # number of times the floating registers were written
system.cpu0.num_mem_refs                      8319320                       # number of memory refs
system.cpu0.num_load_insts                    4862427                       # Number of load instructions
system.cpu0.num_store_insts                   3456893                       # Number of store instructions
system.cpu0.num_idle_cycles              905971177.002448                       # Number of idle cycles
system.cpu0.num_busy_cycles              23140105.997552                       # Number of busy cycles
system.cpu0.not_idle_fraction                0.024906                       # Percentage of non-idle cycles
system.cpu0.idle_fraction                    0.975094                       # Percentage of idle cycles
system.cpu0.Branches                          4712544                       # Number of branches fetched
system.cpu0.op_class::No_OpClass              1584509      5.21%      5.21% # Class of executed instruction
system.cpu0.op_class::IntAlu                 19793641     65.11%     70.32% # Class of executed instruction
system.cpu0.op_class::IntMult                   31883      0.10%     70.43% # Class of executed instruction
system.cpu0.op_class::IntDiv                        0      0.00%     70.43% # Class of executed instruction
system.cpu0.op_class::FloatAdd                  12951      0.04%     70.47% # Class of executed instruction
system.cpu0.op_class::FloatCmp                      0      0.00%     70.47% # Class of executed instruction
system.cpu0.op_class::FloatCvt                      0      0.00%     70.47% # Class of executed instruction
system.cpu0.op_class::FloatMult                     0      0.00%     70.47% # Class of executed instruction
system.cpu0.op_class::FloatDiv                   1606      0.01%     70.48% # Class of executed instruction
system.cpu0.op_class::FloatSqrt                     0      0.00%     70.48% # Class of executed instruction
system.cpu0.op_class::SimdAdd                       0      0.00%     70.48% # Class of executed instruction
system.cpu0.op_class::SimdAddAcc                    0      0.00%     70.48% # Class of executed instruction
system.cpu0.op_class::SimdAlu                       0      0.00%     70.48% # Class of executed instruction
system.cpu0.op_class::SimdCmp                       0      0.00%     70.48% # Class of executed instruction
system.cpu0.op_class::SimdCvt                       0      0.00%     70.48% # Class of executed instruction
system.cpu0.op_class::SimdMisc                      0      0.00%     70.48% # Class of executed instruction
system.cpu0.op_class::SimdMult                      0      0.00%     70.48% # Class of executed instruction
system.cpu0.op_class::SimdMultAcc                   0      0.00%     70.48% # Class of executed instruction
system.cpu0.op_class::SimdShift                     0      0.00%     70.48% # Class of executed instruction
system.cpu0.op_class::SimdShiftAcc                  0      0.00%     70.48% # Class of executed instruction
system.cpu0.op_class::SimdSqrt                      0      0.00%     70.48% # Class of executed instruction
system.cpu0.op_class::SimdFloatAdd                  0      0.00%     70.48% # Class of executed instruction
system.cpu0.op_class::SimdFloatAlu                  0      0.00%     70.48% # Class of executed instruction
system.cpu0.op_class::SimdFloatCmp                  0      0.00%     70.48% # Class of executed instruction
system.cpu0.op_class::SimdFloatCvt                  0      0.00%     70.48% # Class of executed instruction
system.cpu0.op_class::SimdFloatDiv                  0      0.00%     70.48% # Class of executed instruction
system.cpu0.op_class::SimdFloatMisc                 0      0.00%     70.48% # Class of executed instruction
system.cpu0.op_class::SimdFloatMult                 0      0.00%     70.48% # Class of executed instruction
system.cpu0.op_class::SimdFloatMultAcc              0      0.00%     70.48% # Class of executed instruction
system.cpu0.op_class::SimdFloatSqrt                 0      0.00%     70.48% # Class of executed instruction
system.cpu0.op_class::MemRead                 4993701     16.43%     86.90% # Class of executed instruction
system.cpu0.op_class::MemWrite                3459999     11.38%     98.29% # Class of executed instruction
system.cpu0.op_class::IprAccess                520829      1.71%    100.00% # Class of executed instruction
system.cpu0.op_class::InstPrefetch                  0      0.00%    100.00% # Class of executed instruction
system.cpu0.op_class::total                  30399119                       # Class of executed instruction
system.cpu0.kern.inst.arm                           0                       # number of arm instructions executed
system.cpu0.kern.inst.quiesce                    6424                       # number of quiesce instructions executed
system.cpu0.kern.inst.hwrei                    211373                       # number of hwrei instructions executed
system.cpu0.kern.ipl_count::0                   74797     40.97%     40.97% # number of times we switched to this ipl
system.cpu0.kern.ipl_count::21                    203      0.11%     41.08% # number of times we switched to this ipl
system.cpu0.kern.ipl_count::22                   1879      1.03%     42.11% # number of times we switched to this ipl
system.cpu0.kern.ipl_count::31                 105693     57.89%    100.00% # number of times we switched to this ipl
system.cpu0.kern.ipl_count::total              182572                       # number of times we switched to this ipl
system.cpu0.kern.ipl_good::0                    73430     49.30%     49.30% # number of times we switched to this ipl from a different ipl
system.cpu0.kern.ipl_good::21                     203      0.14%     49.44% # number of times we switched to this ipl from a different ipl
system.cpu0.kern.ipl_good::22                    1879      1.26%     50.70% # number of times we switched to this ipl from a different ipl
system.cpu0.kern.ipl_good::31                   73430     49.30%    100.00% # number of times we switched to this ipl from a different ipl
system.cpu0.kern.ipl_good::total               148942                       # number of times we switched to this ipl from a different ipl
system.cpu0.kern.ipl_ticks::0            1819763275500     98.76%     98.76% # number of cycles we spent at this ipl
system.cpu0.kern.ipl_ticks::21               38885000      0.00%     98.76% # number of cycles we spent at this ipl
system.cpu0.kern.ipl_ticks::22              357575500      0.02%     98.78% # number of cycles we spent at this ipl
system.cpu0.kern.ipl_ticks::31            22431449500      1.22%    100.00% # number of cycles we spent at this ipl
system.cpu0.kern.ipl_ticks::total        1842591185500                       # number of cycles we spent at this ipl
system.cpu0.kern.ipl_used::0                 0.981724                       # fraction of swpipl calls that actually changed the ipl
system.cpu0.kern.ipl_used::21                       1                       # fraction of swpipl calls that actually changed the ipl
system.cpu0.kern.ipl_used::22                       1                       # fraction of swpipl calls that actually changed the ipl
system.cpu0.kern.ipl_used::31                0.694748                       # fraction of swpipl calls that actually changed the ipl
system.cpu0.kern.ipl_used::total             0.815799                       # fraction of swpipl calls that actually changed the ipl
system.cpu0.kern.syscall::2                         8      2.45%      2.45% # number of syscalls executed
system.cpu0.kern.syscall::3                        30      9.20%     11.66% # number of syscalls executed
system.cpu0.kern.syscall::4                         4      1.23%     12.88% # number of syscalls executed
system.cpu0.kern.syscall::6                        42     12.88%     25.77% # number of syscalls executed
system.cpu0.kern.syscall::12                        1      0.31%     26.07% # number of syscalls executed
system.cpu0.kern.syscall::15                        1      0.31%     26.38% # number of syscalls executed
system.cpu0.kern.syscall::17                       15      4.60%     30.98% # number of syscalls executed
system.cpu0.kern.syscall::19                       10      3.07%     34.05% # number of syscalls executed
system.cpu0.kern.syscall::20                        6      1.84%     35.89% # number of syscalls executed
system.cpu0.kern.syscall::23                        4      1.23%     37.12% # number of syscalls executed
system.cpu0.kern.syscall::24                        6      1.84%     38.96% # number of syscalls executed
system.cpu0.kern.syscall::33                       11      3.37%     42.33% # number of syscalls executed
system.cpu0.kern.syscall::41                        2      0.61%     42.94% # number of syscalls executed
system.cpu0.kern.syscall::45                       54     16.56%     59.51% # number of syscalls executed
system.cpu0.kern.syscall::47                        6      1.84%     61.35% # number of syscalls executed
system.cpu0.kern.syscall::48                       10      3.07%     64.42% # number of syscalls executed
system.cpu0.kern.syscall::54                       10      3.07%     67.48% # number of syscalls executed
system.cpu0.kern.syscall::58                        1      0.31%     67.79% # number of syscalls executed
system.cpu0.kern.syscall::59                        7      2.15%     69.94% # number of syscalls executed
system.cpu0.kern.syscall::71                       54     16.56%     86.50% # number of syscalls executed
system.cpu0.kern.syscall::73                        3      0.92%     87.42% # number of syscalls executed
system.cpu0.kern.syscall::74                       16      4.91%     92.33% # number of syscalls executed
system.cpu0.kern.syscall::87                        1      0.31%     92.64% # number of syscalls executed
system.cpu0.kern.syscall::90                        3      0.92%     93.56% # number of syscalls executed
system.cpu0.kern.syscall::92                        9      2.76%     96.32% # number of syscalls executed
system.cpu0.kern.syscall::97                        2      0.61%     96.93% # number of syscalls executed
system.cpu0.kern.syscall::98                        2      0.61%     97.55% # number of syscalls executed
system.cpu0.kern.syscall::132                       4      1.23%     98.77% # number of syscalls executed
system.cpu0.kern.syscall::144                       2      0.61%     99.39% # number of syscalls executed
system.cpu0.kern.syscall::147                       2      0.61%    100.00% # number of syscalls executed
system.cpu0.kern.syscall::total                   326                       # number of syscalls executed
system.cpu0.kern.callpal::cserve                    1      0.00%      0.00% # number of callpals executed
system.cpu0.kern.callpal::wrmces                    1      0.00%      0.00% # number of callpals executed
system.cpu0.kern.callpal::wrfen                     1      0.00%      0.00% # number of callpals executed
system.cpu0.kern.callpal::wrvptptr                  1      0.00%      0.00% # number of callpals executed
system.cpu0.kern.callpal::swpctx                 4176      2.17%      2.17% # number of callpals executed
system.cpu0.kern.callpal::tbi                      54      0.03%      2.20% # number of callpals executed
system.cpu0.kern.callpal::wrent                     7      0.00%      2.21% # number of callpals executed
system.cpu0.kern.callpal::swpipl               175313     91.20%     93.41% # number of callpals executed
system.cpu0.kern.callpal::rdps                   6783      3.53%     96.94% # number of callpals executed
system.cpu0.kern.callpal::wrkgp                     1      0.00%     96.94% # number of callpals executed
system.cpu0.kern.callpal::wrusp                     7      0.00%     96.94% # number of callpals executed
system.cpu0.kern.callpal::rdusp                     9      0.00%     96.94% # number of callpals executed
system.cpu0.kern.callpal::whami                     2      0.00%     96.95% # number of callpals executed
system.cpu0.kern.callpal::rti                    5176      2.69%     99.64% # number of callpals executed
system.cpu0.kern.callpal::callsys                 515      0.27%     99.91% # number of callpals executed
system.cpu0.kern.callpal::imb                     181      0.09%    100.00% # number of callpals executed
system.cpu0.kern.callpal::total                192228                       # number of callpals executed
system.cpu0.kern.mode_switch::kernel             5922                       # number of protection mode switches
system.cpu0.kern.mode_switch::user               1740                       # number of protection mode switches
system.cpu0.kern.mode_switch::idle               2096                       # number of protection mode switches
system.cpu0.kern.mode_good::kernel               1910                      
system.cpu0.kern.mode_good::user                 1740                      
system.cpu0.kern.mode_good::idle                  170                      
system.cpu0.kern.mode_switch_good::kernel     0.322526                       # fraction of useful protection mode switches
system.cpu0.kern.mode_switch_good::user             1                       # fraction of useful protection mode switches
system.cpu0.kern.mode_switch_good::idle      0.081107                       # fraction of useful protection mode switches
system.cpu0.kern.mode_switch_good::total     0.391474                       # fraction of useful protection mode switches
system.cpu0.kern.mode_ticks::kernel       29641344500      1.61%      1.61% # number of ticks spent at the given mode
system.cpu0.kern.mode_ticks::user          2562591500      0.14%      1.75% # number of ticks spent at the given mode
system.cpu0.kern.mode_ticks::idle        1810387245000     98.25%    100.00% # number of ticks spent at the given mode
system.cpu0.kern.swap_context                    4177                       # number of times the context was actually changed
system.cpu0.dcache.tags.replacements          1393017                       # number of replacements
system.cpu0.dcache.tags.tagsinuse          511.997818                       # Cycle average of tags in use
system.cpu0.dcache.tags.total_refs           13281490                       # Total number of references to valid blocks.
system.cpu0.dcache.tags.sampled_refs          1393529                       # Sample count of references to valid blocks.
system.cpu0.dcache.tags.avg_refs             9.530831                       # Average number of references to valid blocks.
system.cpu0.dcache.tags.warmup_cycle         10840000                       # Cycle when the warmup percentage was hit.
system.cpu0.dcache.tags.occ_blocks::cpu0.data   260.752731                       # Average occupied blocks per requestor
system.cpu0.dcache.tags.occ_blocks::cpu1.data    75.043138                       # Average occupied blocks per requestor
system.cpu0.dcache.tags.occ_blocks::cpu2.data   176.201949                       # Average occupied blocks per requestor
system.cpu0.dcache.tags.occ_percent::cpu0.data     0.509283                       # Average percentage of cache occupancy
system.cpu0.dcache.tags.occ_percent::cpu1.data     0.146569                       # Average percentage of cache occupancy
system.cpu0.dcache.tags.occ_percent::cpu2.data     0.344144                       # Average percentage of cache occupancy
system.cpu0.dcache.tags.occ_percent::total     0.999996                       # Average percentage of cache occupancy
system.cpu0.dcache.tags.occ_task_id_blocks::1024          512                       # Occupied blocks per task id
system.cpu0.dcache.tags.age_task_id_blocks_1024::0          177                       # Occupied blocks per task id
system.cpu0.dcache.tags.age_task_id_blocks_1024::1          266                       # Occupied blocks per task id
system.cpu0.dcache.tags.age_task_id_blocks_1024::2           69                       # Occupied blocks per task id
system.cpu0.dcache.tags.occ_task_id_percent::1024            1                       # Percentage of cache occupancy per task id
system.cpu0.dcache.tags.tag_accesses         63366474                       # Number of tag accesses
system.cpu0.dcache.tags.data_accesses        63366474                       # Number of data accesses
system.cpu0.dcache.ReadReq_hits::cpu0.data      4014509                       # number of ReadReq hits
system.cpu0.dcache.ReadReq_hits::cpu1.data      1053432                       # number of ReadReq hits
system.cpu0.dcache.ReadReq_hits::cpu2.data      2506621                       # number of ReadReq hits
system.cpu0.dcache.ReadReq_hits::total        7574562                       # number of ReadReq hits
system.cpu0.dcache.WriteReq_hits::cpu0.data      3156846                       # number of WriteReq hits
system.cpu0.dcache.WriteReq_hits::cpu1.data       808200                       # number of WriteReq hits
system.cpu0.dcache.WriteReq_hits::cpu2.data      1357961                       # number of WriteReq hits
system.cpu0.dcache.WriteReq_hits::total       5323007                       # number of WriteReq hits
system.cpu0.dcache.LoadLockedReq_hits::cpu0.data       114880                       # number of LoadLockedReq hits
system.cpu0.dcache.LoadLockedReq_hits::cpu1.data        18791                       # number of LoadLockedReq hits
system.cpu0.dcache.LoadLockedReq_hits::cpu2.data        50813                       # number of LoadLockedReq hits
system.cpu0.dcache.LoadLockedReq_hits::total       184484                       # number of LoadLockedReq hits
system.cpu0.dcache.StoreCondReq_hits::cpu0.data       123743                       # number of StoreCondReq hits
system.cpu0.dcache.StoreCondReq_hits::cpu1.data        20765                       # number of StoreCondReq hits
system.cpu0.dcache.StoreCondReq_hits::cpu2.data        54820                       # number of StoreCondReq hits
system.cpu0.dcache.StoreCondReq_hits::total       199328                       # number of StoreCondReq hits
system.cpu0.dcache.demand_hits::cpu0.data      7171355                       # number of demand (read+write) hits
system.cpu0.dcache.demand_hits::cpu1.data      1861632                       # number of demand (read+write) hits
system.cpu0.dcache.demand_hits::cpu2.data      3864582                       # number of demand (read+write) hits
system.cpu0.dcache.demand_hits::total        12897569                       # number of demand (read+write) hits
system.cpu0.dcache.overall_hits::cpu0.data      7171355                       # number of overall hits
system.cpu0.dcache.overall_hits::cpu1.data      1861632                       # number of overall hits
system.cpu0.dcache.overall_hits::cpu2.data      3864582                       # number of overall hits
system.cpu0.dcache.overall_hits::total       12897569                       # number of overall hits
system.cpu0.dcache.ReadReq_misses::cpu0.data       713110                       # number of ReadReq misses
system.cpu0.dcache.ReadReq_misses::cpu1.data        94552                       # number of ReadReq misses
system.cpu0.dcache.ReadReq_misses::cpu2.data       558128                       # number of ReadReq misses
system.cpu0.dcache.ReadReq_misses::total      1365790                       # number of ReadReq misses
system.cpu0.dcache.WriteReq_misses::cpu0.data       166356                       # number of WriteReq misses
system.cpu0.dcache.WriteReq_misses::cpu1.data        43595                       # number of WriteReq misses
system.cpu0.dcache.WriteReq_misses::cpu2.data       617033                       # number of WriteReq misses
system.cpu0.dcache.WriteReq_misses::total       826984                       # number of WriteReq misses
system.cpu0.dcache.LoadLockedReq_misses::cpu0.data         9412                       # number of LoadLockedReq misses
system.cpu0.dcache.LoadLockedReq_misses::cpu1.data         2104                       # number of LoadLockedReq misses
system.cpu0.dcache.LoadLockedReq_misses::cpu2.data         7556                       # number of LoadLockedReq misses
system.cpu0.dcache.LoadLockedReq_misses::total        19072                       # number of LoadLockedReq misses
system.cpu0.dcache.StoreCondReq_misses::cpu0.data            2                       # number of StoreCondReq misses
system.cpu0.dcache.StoreCondReq_misses::cpu2.data            7                       # number of StoreCondReq misses
system.cpu0.dcache.StoreCondReq_misses::total            9                       # number of StoreCondReq misses
system.cpu0.dcache.demand_misses::cpu0.data       879466                       # number of demand (read+write) misses
system.cpu0.dcache.demand_misses::cpu1.data       138147                       # number of demand (read+write) misses
system.cpu0.dcache.demand_misses::cpu2.data      1175161                       # number of demand (read+write) misses
system.cpu0.dcache.demand_misses::total       2192774                       # number of demand (read+write) misses
system.cpu0.dcache.overall_misses::cpu0.data       879466                       # number of overall misses
system.cpu0.dcache.overall_misses::cpu1.data       138147                       # number of overall misses
system.cpu0.dcache.overall_misses::cpu2.data      1175161                       # number of overall misses
system.cpu0.dcache.overall_misses::total      2192774                       # number of overall misses
system.cpu0.dcache.ReadReq_miss_latency::cpu1.data   2193347250                       # number of ReadReq miss cycles
system.cpu0.dcache.ReadReq_miss_latency::cpu2.data   9664547340                       # number of ReadReq miss cycles
system.cpu0.dcache.ReadReq_miss_latency::total  11857894590                       # number of ReadReq miss cycles
system.cpu0.dcache.WriteReq_miss_latency::cpu1.data   1652894510                       # number of WriteReq miss cycles
system.cpu0.dcache.WriteReq_miss_latency::cpu2.data  19391335975                       # number of WriteReq miss cycles
system.cpu0.dcache.WriteReq_miss_latency::total  21044230485                       # number of WriteReq miss cycles
system.cpu0.dcache.LoadLockedReq_miss_latency::cpu1.data     27729500                       # number of LoadLockedReq miss cycles
system.cpu0.dcache.LoadLockedReq_miss_latency::cpu2.data    125483249                       # number of LoadLockedReq miss cycles
system.cpu0.dcache.LoadLockedReq_miss_latency::total    153212749                       # number of LoadLockedReq miss cycles
system.cpu0.dcache.StoreCondReq_miss_latency::cpu2.data        91000                       # number of StoreCondReq miss cycles
system.cpu0.dcache.StoreCondReq_miss_latency::total        91000                       # number of StoreCondReq miss cycles
system.cpu0.dcache.demand_miss_latency::cpu1.data   3846241760                       # number of demand (read+write) miss cycles
system.cpu0.dcache.demand_miss_latency::cpu2.data  29055883315                       # number of demand (read+write) miss cycles
system.cpu0.dcache.demand_miss_latency::total  32902125075                       # number of demand (read+write) miss cycles
system.cpu0.dcache.overall_miss_latency::cpu1.data   3846241760                       # number of overall miss cycles
system.cpu0.dcache.overall_miss_latency::cpu2.data  29055883315                       # number of overall miss cycles
system.cpu0.dcache.overall_miss_latency::total  32902125075                       # number of overall miss cycles
system.cpu0.dcache.ReadReq_accesses::cpu0.data      4727619                       # number of ReadReq accesses(hits+misses)
system.cpu0.dcache.ReadReq_accesses::cpu1.data      1147984                       # number of ReadReq accesses(hits+misses)
system.cpu0.dcache.ReadReq_accesses::cpu2.data      3064749                       # number of ReadReq accesses(hits+misses)
system.cpu0.dcache.ReadReq_accesses::total      8940352                       # number of ReadReq accesses(hits+misses)
system.cpu0.dcache.WriteReq_accesses::cpu0.data      3323202                       # number of WriteReq accesses(hits+misses)
system.cpu0.dcache.WriteReq_accesses::cpu1.data       851795                       # number of WriteReq accesses(hits+misses)
system.cpu0.dcache.WriteReq_accesses::cpu2.data      1974994                       # number of WriteReq accesses(hits+misses)
system.cpu0.dcache.WriteReq_accesses::total      6149991                       # number of WriteReq accesses(hits+misses)
system.cpu0.dcache.LoadLockedReq_accesses::cpu0.data       124292                       # number of LoadLockedReq accesses(hits+misses)
system.cpu0.dcache.LoadLockedReq_accesses::cpu1.data        20895                       # number of LoadLockedReq accesses(hits+misses)
system.cpu0.dcache.LoadLockedReq_accesses::cpu2.data        58369                       # number of LoadLockedReq accesses(hits+misses)
system.cpu0.dcache.LoadLockedReq_accesses::total       203556                       # number of LoadLockedReq accesses(hits+misses)
system.cpu0.dcache.StoreCondReq_accesses::cpu0.data       123745                       # number of StoreCondReq accesses(hits+misses)
system.cpu0.dcache.StoreCondReq_accesses::cpu1.data        20765                       # number of StoreCondReq accesses(hits+misses)
system.cpu0.dcache.StoreCondReq_accesses::cpu2.data        54827                       # number of StoreCondReq accesses(hits+misses)
system.cpu0.dcache.StoreCondReq_accesses::total       199337                       # number of StoreCondReq accesses(hits+misses)
system.cpu0.dcache.demand_accesses::cpu0.data      8050821                       # number of demand (read+write) accesses
system.cpu0.dcache.demand_accesses::cpu1.data      1999779                       # number of demand (read+write) accesses
system.cpu0.dcache.demand_accesses::cpu2.data      5039743                       # number of demand (read+write) accesses
system.cpu0.dcache.demand_accesses::total     15090343                       # number of demand (read+write) accesses
system.cpu0.dcache.overall_accesses::cpu0.data      8050821                       # number of overall (read+write) accesses
system.cpu0.dcache.overall_accesses::cpu1.data      1999779                       # number of overall (read+write) accesses
system.cpu0.dcache.overall_accesses::cpu2.data      5039743                       # number of overall (read+write) accesses
system.cpu0.dcache.overall_accesses::total     15090343                       # number of overall (read+write) accesses
system.cpu0.dcache.ReadReq_miss_rate::cpu0.data     0.150839                       # miss rate for ReadReq accesses
system.cpu0.dcache.ReadReq_miss_rate::cpu1.data     0.082364                       # miss rate for ReadReq accesses
system.cpu0.dcache.ReadReq_miss_rate::cpu2.data     0.182112                       # miss rate for ReadReq accesses
system.cpu0.dcache.ReadReq_miss_rate::total     0.152767                       # miss rate for ReadReq accesses
system.cpu0.dcache.WriteReq_miss_rate::cpu0.data     0.050059                       # miss rate for WriteReq accesses
system.cpu0.dcache.WriteReq_miss_rate::cpu1.data     0.051180                       # miss rate for WriteReq accesses
system.cpu0.dcache.WriteReq_miss_rate::cpu2.data     0.312423                       # miss rate for WriteReq accesses
system.cpu0.dcache.WriteReq_miss_rate::total     0.134469                       # miss rate for WriteReq accesses
system.cpu0.dcache.LoadLockedReq_miss_rate::cpu0.data     0.075725                       # miss rate for LoadLockedReq accesses
system.cpu0.dcache.LoadLockedReq_miss_rate::cpu1.data     0.100694                       # miss rate for LoadLockedReq accesses
system.cpu0.dcache.LoadLockedReq_miss_rate::cpu2.data     0.129452                       # miss rate for LoadLockedReq accesses
system.cpu0.dcache.LoadLockedReq_miss_rate::total     0.093694                       # miss rate for LoadLockedReq accesses
system.cpu0.dcache.StoreCondReq_miss_rate::cpu0.data     0.000016                       # miss rate for StoreCondReq accesses
system.cpu0.dcache.StoreCondReq_miss_rate::cpu2.data     0.000128                       # miss rate for StoreCondReq accesses
system.cpu0.dcache.StoreCondReq_miss_rate::total     0.000045                       # miss rate for StoreCondReq accesses
system.cpu0.dcache.demand_miss_rate::cpu0.data     0.109239                       # miss rate for demand accesses
system.cpu0.dcache.demand_miss_rate::cpu1.data     0.069081                       # miss rate for demand accesses
system.cpu0.dcache.demand_miss_rate::cpu2.data     0.233179                       # miss rate for demand accesses
system.cpu0.dcache.demand_miss_rate::total     0.145310                       # miss rate for demand accesses
system.cpu0.dcache.overall_miss_rate::cpu0.data     0.109239                       # miss rate for overall accesses
system.cpu0.dcache.overall_miss_rate::cpu1.data     0.069081                       # miss rate for overall accesses
system.cpu0.dcache.overall_miss_rate::cpu2.data     0.233179                       # miss rate for overall accesses
system.cpu0.dcache.overall_miss_rate::total     0.145310                       # miss rate for overall accesses
system.cpu0.dcache.ReadReq_avg_miss_latency::cpu1.data 23197.259180                       # average ReadReq miss latency
system.cpu0.dcache.ReadReq_avg_miss_latency::cpu2.data 17316.005182                       # average ReadReq miss latency
system.cpu0.dcache.ReadReq_avg_miss_latency::total  8682.077472                       # average ReadReq miss latency
system.cpu0.dcache.WriteReq_avg_miss_latency::cpu1.data 37914.772566                       # average WriteReq miss latency
system.cpu0.dcache.WriteReq_avg_miss_latency::cpu2.data 31426.740507                       # average WriteReq miss latency
system.cpu0.dcache.WriteReq_avg_miss_latency::total 25446.962075                       # average WriteReq miss latency
system.cpu0.dcache.LoadLockedReq_avg_miss_latency::cpu1.data 13179.420152                       # average LoadLockedReq miss latency
system.cpu0.dcache.LoadLockedReq_avg_miss_latency::cpu2.data 16607.100185                       # average LoadLockedReq miss latency
system.cpu0.dcache.LoadLockedReq_avg_miss_latency::total  8033.386588                       # average LoadLockedReq miss latency
system.cpu0.dcache.StoreCondReq_avg_miss_latency::cpu2.data        13000                       # average StoreCondReq miss latency
system.cpu0.dcache.StoreCondReq_avg_miss_latency::total 10111.111111                       # average StoreCondReq miss latency
system.cpu0.dcache.demand_avg_miss_latency::cpu1.data 27841.659681                       # average overall miss latency
system.cpu0.dcache.demand_avg_miss_latency::cpu2.data 24725.023478                       # average overall miss latency
system.cpu0.dcache.demand_avg_miss_latency::total 15004.795330                       # average overall miss latency
system.cpu0.dcache.overall_avg_miss_latency::cpu1.data 27841.659681                       # average overall miss latency
system.cpu0.dcache.overall_avg_miss_latency::cpu2.data 24725.023478                       # average overall miss latency
system.cpu0.dcache.overall_avg_miss_latency::total 15004.795330                       # average overall miss latency
system.cpu0.dcache.blocked_cycles::no_mshrs       825255                       # number of cycles access was blocked
system.cpu0.dcache.blocked_cycles::no_targets         1343                       # number of cycles access was blocked
system.cpu0.dcache.blocked::no_mshrs            61465                       # number of cycles access was blocked
system.cpu0.dcache.blocked::no_targets              9                       # number of cycles access was blocked
system.cpu0.dcache.avg_blocked_cycles::no_mshrs    13.426422                       # average number of cycles each access was blocked
system.cpu0.dcache.avg_blocked_cycles::no_targets   149.222222                       # average number of cycles each access was blocked
system.cpu0.dcache.fast_writes                      0                       # number of fast writes performed
system.cpu0.dcache.cache_copies                     0                       # number of cache copies performed
system.cpu0.dcache.writebacks::writebacks       835667                       # number of writebacks
system.cpu0.dcache.writebacks::total           835667                       # number of writebacks
system.cpu0.dcache.ReadReq_mshr_hits::cpu2.data       292188                       # number of ReadReq MSHR hits
system.cpu0.dcache.ReadReq_mshr_hits::total       292188                       # number of ReadReq MSHR hits
system.cpu0.dcache.WriteReq_mshr_hits::cpu2.data       524505                       # number of WriteReq MSHR hits
system.cpu0.dcache.WriteReq_mshr_hits::total       524505                       # number of WriteReq MSHR hits
system.cpu0.dcache.LoadLockedReq_mshr_hits::cpu2.data         1570                       # number of LoadLockedReq MSHR hits
system.cpu0.dcache.LoadLockedReq_mshr_hits::total         1570                       # number of LoadLockedReq MSHR hits
system.cpu0.dcache.demand_mshr_hits::cpu2.data       816693                       # number of demand (read+write) MSHR hits
system.cpu0.dcache.demand_mshr_hits::total       816693                       # number of demand (read+write) MSHR hits
system.cpu0.dcache.overall_mshr_hits::cpu2.data       816693                       # number of overall MSHR hits
system.cpu0.dcache.overall_mshr_hits::total       816693                       # number of overall MSHR hits
system.cpu0.dcache.ReadReq_mshr_misses::cpu1.data        94552                       # number of ReadReq MSHR misses
[...]
system.l2c.demand_mshr_miss_rate::total      0.034792                       # mshr miss rate for demand accesses
system.l2c.overall_mshr_miss_rate::cpu1.inst     0.018480                       # mshr miss rate for overall accesses
system.l2c.overall_mshr_miss_rate::cpu1.data     0.250681                       # mshr miss rate for overall accesses
system.l2c.overall_mshr_miss_rate::cpu2.inst     0.014068                       # mshr miss rate for overall accesses
system.l2c.overall_mshr_miss_rate::cpu2.data     0.109791                       # mshr miss rate for overall accesses
system.l2c.overall_mshr_miss_rate::total     0.034792                       # mshr miss rate for overall accesses
system.l2c.ReadReq_avg_mshr_miss_latency::cpu1.inst 62365.141612                       # average ReadReq mshr miss latency
system.l2c.ReadReq_avg_mshr_miss_latency::cpu1.data 54265.105965                       # average ReadReq mshr miss latency
system.l2c.ReadReq_avg_mshr_miss_latency::cpu2.inst 63094.090118                       # average ReadReq mshr miss latency
system.l2c.ReadReq_avg_mshr_miss_latency::cpu2.data 54258.911637                       # average ReadReq mshr miss latency
system.l2c.ReadReq_avg_mshr_miss_latency::total 55683.866820                       # average ReadReq mshr miss latency
system.l2c.UpgradeReq_avg_mshr_miss_latency::cpu2.data 15483.655172                       # average UpgradeReq mshr miss latency
system.l2c.UpgradeReq_avg_mshr_miss_latency::total 15483.655172                       # average UpgradeReq mshr miss latency
system.l2c.ReadExReq_avg_mshr_miss_latency::cpu1.data 56107.979847                       # average ReadExReq mshr miss latency
system.l2c.ReadExReq_avg_mshr_miss_latency::cpu2.data 69958.127106                       # average ReadExReq mshr miss latency
system.l2c.ReadExReq_avg_mshr_miss_latency::total 63670.699955                       # average ReadExReq mshr miss latency
system.l2c.demand_avg_mshr_miss_latency::cpu1.inst 62365.141612                       # average overall mshr miss latency
system.l2c.demand_avg_mshr_miss_latency::cpu1.data 55227.480517                       # average overall mshr miss latency
system.l2c.demand_avg_mshr_miss_latency::cpu2.inst 63094.090118                       # average overall mshr miss latency
system.l2c.demand_avg_mshr_miss_latency::cpu2.data 62924.282154                       # average overall mshr miss latency
system.l2c.demand_avg_mshr_miss_latency::total 59620.392398                       # average overall mshr miss latency
system.l2c.overall_avg_mshr_miss_latency::cpu1.inst 62365.141612                       # average overall mshr miss latency
system.l2c.overall_avg_mshr_miss_latency::cpu1.data 55227.480517                       # average overall mshr miss latency
system.l2c.overall_avg_mshr_miss_latency::cpu2.inst 63094.090118                       # average overall mshr miss latency
system.l2c.overall_avg_mshr_miss_latency::cpu2.data 62924.282154                       # average overall mshr miss latency
system.l2c.overall_avg_mshr_miss_latency::total 59620.392398                       # average overall mshr miss latency
system.l2c.ReadReq_avg_mshr_uncacheable_latency::cpu1.data          inf                       # average ReadReq mshr uncacheable latency
system.l2c.ReadReq_avg_mshr_uncacheable_latency::cpu2.data          inf                       # average ReadReq mshr uncacheable latency
system.l2c.ReadReq_avg_mshr_uncacheable_latency::total          inf                       # average ReadReq mshr uncacheable latency
system.l2c.WriteReq_avg_mshr_uncacheable_latency::cpu1.data          inf                       # average WriteReq mshr uncacheable latency
system.l2c.WriteReq_avg_mshr_uncacheable_latency::cpu2.data          inf                       # average WriteReq mshr uncacheable latency
system.l2c.WriteReq_avg_mshr_uncacheable_latency::total          inf                       # average WriteReq mshr uncacheable latency
system.l2c.overall_avg_mshr_uncacheable_latency::cpu1.data          inf                       # average overall mshr uncacheable latency
system.l2c.overall_avg_mshr_uncacheable_latency::cpu2.data          inf                       # average overall mshr uncacheable latency
system.l2c.overall_avg_mshr_uncacheable_latency::total          inf                       # average overall mshr uncacheable latency
system.l2c.no_allocate_misses                       0                       # Number of misses that were no-allocate
system.membus.trans_dist::ReadReq              294932                       # Transaction distribution
system.membus.trans_dist::ReadResp             294926                       # Transaction distribution
system.membus.trans_dist::WriteReq               9811                       # Transaction distribution
system.membus.trans_dist::WriteResp              9811                       # Transaction distribution
system.membus.trans_dist::Writeback            116905                       # Transaction distribution
system.membus.trans_dist::WriteInvalidateReq        41552                       # Transaction distribution
system.membus.trans_dist::WriteInvalidateResp        41552                       # Transaction distribution
system.membus.trans_dist::UpgradeReq              163                       # Transaction distribution
system.membus.trans_dist::SCUpgradeReq              2                       # Transaction distribution
system.membus.trans_dist::UpgradeResp             165                       # Transaction distribution
system.membus.trans_dist::ReadExReq            115724                       # Transaction distribution
system.membus.trans_dist::ReadExResp           115724                       # Transaction distribution
system.membus.trans_dist::BadAddressError            6                       # Transaction distribution
system.membus.pkt_count_system.l2c.mem_side::system.bridge.slave        33910                       # Packet count per connected master and slave (bytes)
system.membus.pkt_count_system.l2c.mem_side::system.physmem.port       882304                       # Packet count per connected master and slave (bytes)
system.membus.pkt_count_system.l2c.mem_side::system.membus.badaddr_responder.pio           12                       # Packet count per connected master and slave (bytes)
system.membus.pkt_count_system.l2c.mem_side::total       916226                       # Packet count per connected master and slave (bytes)
system.membus.pkt_count_system.iocache.mem_side::system.physmem.port       124907                       # Packet count per connected master and slave (bytes)
system.membus.pkt_count_system.iocache.mem_side::total       124907                       # Packet count per connected master and slave (bytes)
system.membus.pkt_count::total                1041133                       # Packet count per connected master and slave (bytes)
system.membus.pkt_size_system.l2c.mem_side::system.bridge.slave        45576                       # Cumulative packet size per connected master and slave (bytes)
system.membus.pkt_size_system.l2c.mem_side::system.physmem.port     30633216                       # Cumulative packet size per connected master and slave (bytes)
system.membus.pkt_size_system.l2c.mem_side::total     30678792                       # Cumulative packet size per connected master and slave (bytes)
system.membus.pkt_size_system.iocache.mem_side::system.physmem.port      5323648                       # Cumulative packet size per connected master and slave (bytes)
system.membus.pkt_size_system.iocache.mem_side::total      5323648                       # Cumulative packet size per connected master and slave (bytes)
system.membus.pkt_size::total                36002440                       # Cumulative packet size per connected master and slave (bytes)
system.membus.snoops                              140                       # Total snoops (count)
system.membus.snoop_fanout::samples            562134                       # Request fanout histogram
system.membus.snoop_fanout::mean                    1                       # Request fanout histogram
system.membus.snoop_fanout::stdev                   0                       # Request fanout histogram
system.membus.snoop_fanout::underflows              0      0.00%      0.00% # Request fanout histogram
system.membus.snoop_fanout::0                       0      0.00%      0.00% # Request fanout histogram
system.membus.snoop_fanout::1                  562134    100.00%    100.00% # Request fanout histogram
system.membus.snoop_fanout::2                       0      0.00%    100.00% # Request fanout histogram
system.membus.snoop_fanout::overflows               0      0.00%    100.00% # Request fanout histogram
system.membus.snoop_fanout::min_value               1                       # Request fanout histogram
system.membus.snoop_fanout::max_value               1                       # Request fanout histogram
system.membus.snoop_fanout::total              562134                       # Request fanout histogram
system.membus.reqLayer0.occupancy            11832500                       # Layer occupancy (ticks)
system.membus.reqLayer0.utilization               0.0                       # Layer utilization (%)
system.membus.reqLayer1.occupancy           654960000                       # Layer occupancy (ticks)
system.membus.reqLayer1.utilization               0.0                       # Layer utilization (%)
system.membus.reqLayer2.occupancy                7500                       # Layer occupancy (ticks)
system.membus.reqLayer2.utilization               0.0                       # Layer utilization (%)
system.membus.respLayer1.occupancy          770434435                       # Layer occupancy (ticks)
system.membus.respLayer1.utilization              0.0                       # Layer utilization (%)
system.membus.respLayer2.occupancy           17654500                       # Layer occupancy (ticks)
system.membus.respLayer2.utilization              0.0                       # Layer utilization (%)
system.toL2Bus.trans_dist::ReadReq            2063004                       # Transaction distribution
system.toL2Bus.trans_dist::ReadResp           2062983                       # Transaction distribution
system.toL2Bus.trans_dist::WriteReq              9811                       # Transaction distribution
system.toL2Bus.trans_dist::WriteResp             9811                       # Transaction distribution
system.toL2Bus.trans_dist::Writeback           835667                       # Transaction distribution
system.toL2Bus.trans_dist::WriteInvalidateReq        17024                       # Transaction distribution
system.toL2Bus.trans_dist::UpgradeReq              48                       # Transaction distribution
system.toL2Bus.trans_dist::SCUpgradeReq             9                       # Transaction distribution
system.toL2Bus.trans_dist::UpgradeResp             57                       # Transaction distribution
system.toL2Bus.trans_dist::ReadExReq           302779                       # Transaction distribution
system.toL2Bus.trans_dist::ReadExResp          302779                       # Transaction distribution
system.toL2Bus.trans_dist::BadAddressError            6                       # Transaction distribution
system.toL2Bus.pkt_count_system.cpu0.icache.mem_side::system.l2c.cpu_side      1930013                       # Packet count per connected master and slave (bytes)
system.toL2Bus.pkt_count_system.cpu0.dcache.mem_side::system.l2c.cpu_side      3656818                       # Packet count per connected master and slave (bytes)
system.toL2Bus.pkt_count::total               5586831                       # Packet count per connected master and slave (bytes)
system.toL2Bus.pkt_size_system.cpu0.icache.mem_side::system.l2c.cpu_side     61758720                       # Cumulative packet size per connected master and slave (bytes)
system.toL2Bus.pkt_size_system.cpu0.dcache.mem_side::system.l2c.cpu_side    142717704                       # Cumulative packet size per connected master and slave (bytes)
system.toL2Bus.pkt_size::total              204476424                       # Cumulative packet size per connected master and slave (bytes)
system.toL2Bus.snoops                           41934                       # Total snoops (count)
system.toL2Bus.snoop_fanout::samples          3236018                       # Request fanout histogram
system.toL2Bus.snoop_fanout::mean            1.012894                       # Request fanout histogram
system.toL2Bus.snoop_fanout::stdev           0.112817                       # Request fanout histogram
system.toL2Bus.snoop_fanout::underflows             0      0.00%      0.00% # Request fanout histogram
system.toL2Bus.snoop_fanout::0                      0      0.00%      0.00% # Request fanout histogram
system.toL2Bus.snoop_fanout::1                3194293     98.71%     98.71% # Request fanout histogram
system.toL2Bus.snoop_fanout::2                  41725      1.29%    100.00% # Request fanout histogram
system.toL2Bus.snoop_fanout::overflows              0      0.00%    100.00% # Request fanout histogram
system.toL2Bus.snoop_fanout::min_value              1                       # Request fanout histogram
system.toL2Bus.snoop_fanout::max_value              2                       # Request fanout histogram
system.toL2Bus.snoop_fanout::total            3236018                       # Request fanout histogram
system.toL2Bus.reqLayer0.occupancy         2201638999                       # Layer occupancy (ticks)
system.toL2Bus.reqLayer0.utilization              0.1                       # Layer utilization (%)
system.toL2Bus.snoopLayer0.occupancy           247500                       # Layer occupancy (ticks)
system.toL2Bus.snoopLayer0.utilization            0.0                       # Layer utilization (%)
system.toL2Bus.respLayer0.occupancy        2030846564                       # Layer occupancy (ticks)
system.toL2Bus.respLayer0.utilization             0.1                       # Layer utilization (%)
system.toL2Bus.respLayer1.occupancy        2289452792                       # Layer occupancy (ticks)
system.toL2Bus.respLayer1.utilization             0.1                       # Layer utilization (%)
system.tsunami.ethernet.descDMAReads                0                       # Number of descriptors the device read w/ DMA
system.tsunami.ethernet.descDMAWrites               0                       # Number of descriptors the device wrote w/ DMA
system.tsunami.ethernet.descDmaReadBytes            0                       # number of descriptor bytes read w/ DMA
system.tsunami.ethernet.descDmaWriteBytes            0                       # number of descriptor bytes write w/ DMA
system.tsunami.ethernet.postedSwi                   0                       # number of software interrupts posted to CPU
system.tsunami.ethernet.coalescedSwi              nan                       # average number of Swi's coalesced into each post
system.tsunami.ethernet.totalSwi                    0                       # total number of Swi written to ISR
system.tsunami.ethernet.postedRxIdle                0                       # number of rxIdle interrupts posted to CPU
system.tsunami.ethernet.coalescedRxIdle           nan                       # average number of RxIdle's coalesced into each post
system.tsunami.ethernet.totalRxIdle                 0                       # total number of RxIdle written to ISR
system.tsunami.ethernet.postedRxOk                  0                       # number of RxOk interrupts posted to CPU
system.tsunami.ethernet.coalescedRxOk             nan                       # average number of RxOk's coalesced into each post
system.tsunami.ethernet.totalRxOk                   0                       # total number of RxOk written to ISR
system.tsunami.ethernet.postedRxDesc                0                       # number of RxDesc interrupts posted to CPU
system.tsunami.ethernet.coalescedRxDesc           nan                       # average number of RxDesc's coalesced into each post
system.tsunami.ethernet.totalRxDesc                 0                       # total number of RxDesc written to ISR
system.tsunami.ethernet.postedTxOk                  0                       # number of TxOk interrupts posted to CPU
system.tsunami.ethernet.coalescedTxOk             nan                       # average number of TxOk's coalesced into each post
system.tsunami.ethernet.totalTxOk                   0                       # total number of TxOk written to ISR
system.tsunami.ethernet.postedTxIdle                0                       # number of TxIdle interrupts posted to CPU
system.tsunami.ethernet.coalescedTxIdle           nan                       # average number of TxIdle's coalesced into each post
system.tsunami.ethernet.totalTxIdle                 0                       # total number of TxIdle written to ISR
system.tsunami.ethernet.postedTxDesc                0                       # number of TxDesc interrupts posted to CPU
system.tsunami.ethernet.coalescedTxDesc           nan                       # average number of TxDesc's coalesced into each post
system.tsunami.ethernet.totalTxDesc                 0                       # total number of TxDesc written to ISR
system.tsunami.ethernet.postedRxOrn                 0                       # number of RxOrn posted to CPU
system.tsunami.ethernet.coalescedRxOrn            nan                       # average number of RxOrn's coalesced into each post
system.tsunami.ethernet.totalRxOrn                  0                       # total number of RxOrn written to ISR
system.tsunami.ethernet.coalescedTotal            nan                       # average number of interrupts coalesced into each post
system.tsunami.ethernet.postedInterrupts            0                       # number of posts to CPU
system.tsunami.ethernet.droppedPackets              0                       # number of packets dropped
system.cpu2.kern.inst.arm                           0                       # number of arm instructions executed
system.cpu2.kern.inst.quiesce                       0                       # number of quiesce instructions executed
system.cpu2.kern.inst.hwrei                         0                       # number of hwrei instructions executed
system.cpu2.kern.mode_switch::kernel                0                       # number of protection mode switches
system.cpu2.kern.mode_switch::user                  0                       # number of protection mode switches
system.cpu2.kern.mode_switch::idle                  0                       # number of protection mode switches
system.cpu2.kern.mode_good::kernel                  0                      
system.cpu2.kern.mode_good::user                    0                      
system.cpu2.kern.mode_good::idle                    0                      
system.cpu2.kern.mode_switch_good::kernel          nan                       # fraction of useful protection mode switches
system.cpu2.kern.mode_switch_good::user           nan                       # fraction of useful protection mode switches
system.cpu2.kern.mode_switch_good::idle           nan                       # fraction of useful protection mode switches
system.cpu2.kern.mode_switch_good::total          nan                       # fraction of useful protection mode switches
system.cpu2.kern.mode_ticks::kernel                 0                       # number of ticks spent at the given mode
system.cpu2.kern.mode_ticks::user                   0                       # number of ticks spent at the given mode
system.cpu2.kern.mode_ticks::idle                   0                       # number of ticks spent at the given mode
system.cpu2.kern.swap_context                       0                       # number of times the context was actually changed

---------- End Simulation Statistics   ----------
