
---------- Begin Simulation Statistics ----------
sim_seconds                                  1.842694                       # Number of seconds simulated
sim_ticks                                1842693728000                       # Number of ticks simulated
final_tick                               1842693728000                       # Number of ticks from beginning of simulation (restored from checkpoints and never reset)
sim_freq                                 1000000000000                       # Frequency of simulated ticks
host_inst_rate                                 239111                       # Simulator instruction rate (inst/s)
host_op_rate                                   239111                       # Simulator op (including micro ops) rate (op/s)
host_tick_rate                             5964368765                       # Simulator tick rate (ticks/s)
host_mem_usage                                 346744                       # Number of bytes of host memory used
host_seconds                                   308.95                       # Real time elapsed on the host
sim_insts                                    73873335                       # Number of instructions simulated
sim_ops                                      73873335                       # Number of ops (including micro ops) simulated
system.voltage_domain.voltage                       1                       # Voltage in Volts
system.clk_domain.clock                          1000                       # Clock period in ticks
system.physmem.bytes_read::cpu0.inst           489024                       # Number of bytes read from this memory
system.physmem.bytes_read::cpu0.data         20126208                       # Number of bytes read from this memory
system.physmem.bytes_read::tsunami.ide        2652352                       # Number of bytes read from this memory
system.physmem.bytes_read::cpu1.inst           143680                       # Number of bytes read from this memory
system.physmem.bytes_read::cpu1.data          2232768                       # Number of bytes read from this memory
system.physmem.bytes_read::cpu2.inst           285376                       # Number of bytes read from this memory
system.physmem.bytes_read::cpu2.data          2509376                       # Number of bytes read from this memory
system.physmem.bytes_read::total             28438784                       # Number of bytes read from this memory
system.physmem.bytes_inst_read::cpu0.inst       489024                       # Number of instructions bytes read from this memory
system.physmem.bytes_inst_read::cpu1.inst       143680                       # Number of instructions bytes read from this memory
system.physmem.bytes_inst_read::cpu2.inst       285376                       # Number of instructions bytes read from this memory
system.physmem.bytes_inst_read::total          918080                       # Number of instructions bytes read from this memory
system.physmem.bytes_written::writebacks      7463104                       # Number of bytes written to this memory
system.physmem.bytes_written::total           7463104                       # Number of bytes written to this memory
system.physmem.num_reads::cpu0.inst              7641                       # Number of read requests responded to by this memory
system.physmem.num_reads::cpu0.data            314472                       # Number of read requests responded to by this memory
system.physmem.num_reads::tsunami.ide           41443                       # Number of read requests responded to by this memory
system.physmem.num_reads::cpu1.inst              2245                       # Number of read requests responded to by this memory
system.physmem.num_reads::cpu1.data             34887                       # Number of read requests responded to by this memory
system.physmem.num_reads::cpu2.inst              4459                       # Number of read requests responded to by this memory
system.physmem.num_reads::cpu2.data             39209                       # Number of read requests responded to by this memory
system.physmem.num_reads::total                444356                       # Number of read requests responded to by this memory
system.physmem.num_writes::writebacks          116611                       # Number of write requests responded to by this memory
system.physmem.num_writes::total               116611                       # Number of write requests responded to by this memory
system.physmem.bw_read::cpu0.inst              265385                       # Total read bandwidth from this memory (bytes/s)
system.physmem.bw_read::cpu0.data            10922167                       # Total read bandwidth from this memory (bytes/s)
system.physmem.bw_read::tsunami.ide           1439388                       # Total read bandwidth from this memory (bytes/s)
system.physmem.bw_read::cpu1.inst               77973                       # Total read bandwidth from this memory (bytes/s)
system.physmem.bw_read::cpu1.data             1211687                       # Total read bandwidth from this memory (bytes/s)
system.physmem.bw_read::cpu2.inst              154869                       # Total read bandwidth from this memory (bytes/s)
system.physmem.bw_read::cpu2.data             1361798                       # Total read bandwidth from this memory (bytes/s)
system.physmem.bw_read::total                15433267                       # Total read bandwidth from this memory (bytes/s)
system.physmem.bw_inst_read::cpu0.inst         265385                       # Instruction read bandwidth from this memory (bytes/s)
system.physmem.bw_inst_read::cpu1.inst          77973                       # Instruction read bandwidth from this memory (bytes/s)
system.physmem.bw_inst_read::cpu2.inst         154869                       # Instruction read bandwidth from this memory (bytes/s)
system.physmem.bw_inst_read::total             498227                       # Instruction read bandwidth from this memory (bytes/s)
system.physmem.bw_write::writebacks           4050105                       # Write bandwidth from this memory (bytes/s)
system.physmem.bw_write::total                4050105                       # Write bandwidth from this memory (bytes/s)
system.physmem.bw_total::writebacks           4050105                       # Total bandwidth to/from this memory (bytes/s)
system.physmem.bw_total::cpu0.inst             265385                       # Total bandwidth to/from this memory (bytes/s)
system.physmem.bw_total::cpu0.data           10922167                       # Total bandwidth to/from this memory (bytes/s)
system.physmem.bw_total::tsunami.ide          1439388                       # Total bandwidth to/from this memory (bytes/s)
system.physmem.bw_total::cpu1.inst              77973                       # Total bandwidth to/from this memory (bytes/s)
system.physmem.bw_total::cpu1.data            1211687                       # Total bandwidth to/from this memory (bytes/s)
system.physmem.bw_total::cpu2.inst             154869                       # Total bandwidth to/from this memory (bytes/s)
system.physmem.bw_total::cpu2.data            1361798                       # Total bandwidth to/from this memory (bytes/s)
system.physmem.bw_total::total               19483372                       # Total bandwidth to/from this memory (bytes/s)
system.physmem.readReqs                         97691                       # Number of read requests accepted
system.physmem.writeReqs                        44282                       # Number of write requests accepted
system.physmem.readBursts                       97691                       # Number of DRAM read bursts, including those serviced by the write queue
system.physmem.writeBursts                      44282                       # Number of DRAM write bursts, including those merged in the write queue
system.physmem.bytesReadDRAM                  6250944                       # Total number of bytes read from DRAM
system.physmem.bytesReadWrQ                      1280                       # Total number of bytes read from write queue
system.physmem.bytesWritten                   2832576                       # Total number of bytes written to DRAM
system.physmem.bytesReadSys                   6252224                       # Total read bytes from the system interface side
system.physmem.bytesWrittenSys                2834048                       # Total written bytes from the system interface side
system.physmem.servicedByWrQ                       20                       # Number of DRAM read bursts serviced by the write queue
system.physmem.mergedWrBursts                       0                       # Number of DRAM write bursts merged with an existing one
system.physmem.neitherReadNorWriteReqs             39                       # Number of requests that are neither read nor write
system.physmem.perBankRdBursts::0                6114                       # Per bank write bursts
system.physmem.perBankRdBursts::1                5899                       # Per bank write bursts
system.physmem.perBankRdBursts::2                6060                       # Per bank write bursts
system.physmem.perBankRdBursts::3                6276                       # Per bank write bursts
system.physmem.perBankRdBursts::4                5549                       # Per bank write bursts
system.physmem.perBankRdBursts::5                6233                       # Per bank write bursts
system.physmem.perBankRdBursts::6                6082                       # Per bank write bursts
system.physmem.perBankRdBursts::7                6075                       # Per bank write bursts
system.physmem.perBankRdBursts::8                6372                       # Per bank write bursts
system.physmem.perBankRdBursts::9                6119                       # Per bank write bursts
system.physmem.perBankRdBursts::10               6443                       # Per bank write bursts
system.physmem.perBankRdBursts::11               5953                       # Per bank write bursts
system.physmem.perBankRdBursts::12               5846                       # Per bank write bursts
system.physmem.perBankRdBursts::13               6273                       # Per bank write bursts
system.physmem.perBankRdBursts::14               6335                       # Per bank write bursts
system.physmem.perBankRdBursts::15               6042                       # Per bank write bursts
system.physmem.perBankWrBursts::0                2746                       # Per bank write bursts
system.physmem.perBankWrBursts::1                2526                       # Per bank write bursts
system.physmem.perBankWrBursts::2                2727                       # Per bank write bursts
system.physmem.perBankWrBursts::3                3010                       # Per bank write bursts
system.physmem.perBankWrBursts::4                2533                       # Per bank write bursts
system.physmem.perBankWrBursts::5                2968                       # Per bank write bursts
system.physmem.perBankWrBursts::6                2994                       # Per bank write bursts
system.physmem.perBankWrBursts::7                2697                       # Per bank write bursts
system.physmem.perBankWrBursts::8                3092                       # Per bank write bursts
system.physmem.perBankWrBursts::9                2617                       # Per bank write bursts
system.physmem.perBankWrBursts::10               2969                       # Per bank write bursts
system.physmem.perBankWrBursts::11               2522                       # Per bank write bursts
system.physmem.perBankWrBursts::12               2428                       # Per bank write bursts
system.physmem.perBankWrBursts::13               2745                       # Per bank write bursts
system.physmem.perBankWrBursts::14               2948                       # Per bank write bursts
system.physmem.perBankWrBursts::15               2737                       # Per bank write bursts
system.physmem.numRdRetry                           0                       # Number of times read queue was full causing retry
system.physmem.numWrRetry                           5                       # Number of times write queue was full causing retry
system.physmem.totGap                    1841681402500                       # Total gap between requests
system.physmem.readPktSize::0                       0                       # Read request sizes (log2)
system.physmem.readPktSize::1                       0                       # Read request sizes (log2)
system.physmem.readPktSize::2                       0                       # Read request sizes (log2)
system.physmem.readPktSize::3                       0                       # Read request sizes (log2)
system.physmem.readPktSize::4                       0                       # Read request sizes (log2)
system.physmem.readPktSize::5                       0                       # Read request sizes (log2)
system.physmem.readPktSize::6                   97691                       # Read request sizes (log2)
system.physmem.writePktSize::0                      0                       # Write request sizes (log2)
system.physmem.writePktSize::1                      0                       # Write request sizes (log2)
system.physmem.writePktSize::2                      0                       # Write request sizes (log2)
system.physmem.writePktSize::3                      0                       # Write request sizes (log2)
system.physmem.writePktSize::4                      0                       # Write request sizes (log2)
system.physmem.writePktSize::5                      0                       # Write request sizes (log2)
system.physmem.writePktSize::6                  44282                       # Write request sizes (log2)
system.physmem.rdQLenPdf::0                     65712                       # What read queue length does an incoming req see
system.physmem.rdQLenPdf::1                      9632                       # What read queue length does an incoming req see
system.physmem.rdQLenPdf::2                      5477                       # What read queue length does an incoming req see
system.physmem.rdQLenPdf::3                      1935                       # What read queue length does an incoming req see
system.physmem.rdQLenPdf::4                       488                       # What read queue length does an incoming req see
system.physmem.rdQLenPdf::5                      1780                       # What read queue length does an incoming req see
system.physmem.rdQLenPdf::6                      1567                       # What read queue length does an incoming req see
system.physmem.rdQLenPdf::7                      1574                       # What read queue length does an incoming req see
system.physmem.rdQLenPdf::8                      1624                       # What read queue length does an incoming req see
system.physmem.rdQLenPdf::9                      1032                       # What read queue length does an incoming req see
system.physmem.rdQLenPdf::10                      859                       # What read queue length does an incoming req see
system.physmem.rdQLenPdf::11                      829                       # What read queue length does an incoming req see
system.physmem.rdQLenPdf::12                      762                       # What read queue length does an incoming req see
system.physmem.rdQLenPdf::13                      744                       # What read queue length does an incoming req see
system.physmem.rdQLenPdf::14                      633                       # What read queue length does an incoming req see
system.physmem.rdQLenPdf::15                      617                       # What read queue length does an incoming req see
system.physmem.rdQLenPdf::16                      601                       # What read queue length does an incoming req see
system.physmem.rdQLenPdf::17                      609                       # What read queue length does an incoming req see
system.physmem.rdQLenPdf::18                      699                       # What read queue length does an incoming req see
system.physmem.rdQLenPdf::19                      495                       # What read queue length does an incoming req see
system.physmem.rdQLenPdf::20                        2                       # What read queue length does an incoming req see
system.physmem.rdQLenPdf::21                        0                       # What read queue length does an incoming req see
system.physmem.rdQLenPdf::22                        0                       # What read queue length does an incoming req see
system.physmem.rdQLenPdf::23                        0                       # What read queue length does an incoming req see
system.physmem.rdQLenPdf::24                        0                       # What read queue length does an incoming req see
system.physmem.rdQLenPdf::25                        0                       # What read queue length does an incoming req see
system.physmem.rdQLenPdf::26                        0                       # What read queue length does an incoming req see
system.physmem.rdQLenPdf::27                        0                       # What read queue length does an incoming req see
system.physmem.rdQLenPdf::28                        0                       # What read queue length does an incoming req see
system.physmem.rdQLenPdf::29                        0                       # What read queue length does an incoming req see
system.physmem.rdQLenPdf::30                        0                       # What read queue length does an incoming req see
system.physmem.rdQLenPdf::31                        0                       # What read queue length does an incoming req see
system.physmem.wrQLenPdf::0                        80                       # What write queue length does an incoming req see
system.physmem.wrQLenPdf::1                        52                       # What write queue length does an incoming req see
system.physmem.wrQLenPdf::2                        44                       # What write queue length does an incoming req see
system.physmem.wrQLenPdf::3                        43                       # What write queue length does an incoming req see
system.physmem.wrQLenPdf::4                        42                       # What write queue length does an incoming req see
system.physmem.wrQLenPdf::5                        41                       # What write queue length does an incoming req see
system.physmem.wrQLenPdf::6                        40                       # What write queue length does an incoming req see
system.physmem.wrQLenPdf::7                        38                       # What write queue length does an incoming req see
system.physmem.wrQLenPdf::8                        36                       # What write queue length does an incoming req see
system.physmem.wrQLenPdf::9                        36                       # What write queue length does an incoming req see
system.physmem.wrQLenPdf::10                       35                       # What write queue length does an incoming req see
system.physmem.wrQLenPdf::11                       35                       # What write queue length does an incoming req see
system.physmem.wrQLenPdf::12                       35                       # What write queue length does an incoming req see
system.physmem.wrQLenPdf::13                       35                       # What write queue length does an incoming req see
system.physmem.wrQLenPdf::14                       35                       # What write queue length does an incoming req see
system.physmem.wrQLenPdf::15                      523                       # What write queue length does an incoming req see
system.physmem.wrQLenPdf::16                      562                       # What write queue length does an incoming req see
system.physmem.wrQLenPdf::17                      671                       # What write queue length does an incoming req see
system.physmem.wrQLenPdf::18                     1179                       # What write queue length does an incoming req see
system.physmem.wrQLenPdf::19                     1375                       # What write queue length does an incoming req see
system.physmem.wrQLenPdf::20                     1510                       # What write queue length does an incoming req see
system.physmem.wrQLenPdf::21                     1616                       # What write queue length does an incoming req see
system.physmem.wrQLenPdf::22                     1649                       # What write queue length does an incoming req see
system.physmem.wrQLenPdf::23                     1665                       # What write queue length does an incoming req see
system.physmem.wrQLenPdf::24                     1674                       # What write queue length does an incoming req see
system.physmem.wrQLenPdf::25                     1985                       # What write queue length does an incoming req see
system.physmem.wrQLenPdf::26                     1867                       # What write queue length does an incoming req see
system.physmem.wrQLenPdf::27                     1882                       # What write queue length does an incoming req see
system.physmem.wrQLenPdf::28                     2279                       # What write queue length does an incoming req see
system.physmem.wrQLenPdf::29                     2065                       # What write queue length does an incoming req see
system.physmem.wrQLenPdf::30                     2130                       # What write queue length does an incoming req see
system.physmem.wrQLenPdf::31                     2146                       # What write queue length does an incoming req see
system.physmem.wrQLenPdf::32                     2008                       # What write queue length does an incoming req see
system.physmem.wrQLenPdf::33                      918                       # What write queue length does an incoming req see
system.physmem.wrQLenPdf::34                      691                       # What write queue length does an incoming req see
system.physmem.wrQLenPdf::35                      533                       # What write queue length does an incoming req see
system.physmem.wrQLenPdf::36                      419                       # What write queue length does an incoming req see
system.physmem.wrQLenPdf::37                      450                       # What write queue length does an incoming req see
system.physmem.wrQLenPdf::38                      442                       # What write queue length does an incoming req see
system.physmem.wrQLenPdf::39                      400                       # What write queue length does an incoming req see
system.physmem.wrQLenPdf::40                      462                       # What write queue length does an incoming req see
system.physmem.wrQLenPdf::41                      508                       # What write queue length does an incoming req see
system.physmem.wrQLenPdf::42                      598                       # What write queue length does an incoming req see
system.physmem.wrQLenPdf::43                      627                       # What write queue length does an incoming req see
system.physmem.wrQLenPdf::44                      683                       # What write queue length does an incoming req see
system.physmem.wrQLenPdf::45                      690                       # What write queue length does an incoming req see
system.physmem.wrQLenPdf::46                      750                       # What write queue length does an incoming req see
system.physmem.wrQLenPdf::47                      719                       # What write queue length does an incoming req see
system.physmem.wrQLenPdf::48                      789                       # What write queue length does an incoming req see
system.physmem.wrQLenPdf::49                      770                       # What write queue length does an incoming req see
system.physmem.wrQLenPdf::50                      741                       # What write queue length does an incoming req see
system.physmem.wrQLenPdf::51                      761                       # What write queue length does an incoming req see
system.physmem.wrQLenPdf::52                      717                       # What write queue length does an incoming req see
system.physmem.wrQLenPdf::53                      621                       # What write queue length does an incoming req see
system.physmem.wrQLenPdf::54                      531                       # What write queue length does an incoming req see
system.physmem.wrQLenPdf::55                      382                       # What write queue length does an incoming req see
system.physmem.wrQLenPdf::56                      281                       # What write queue length does an incoming req see
system.physmem.wrQLenPdf::57                      203                       # What write queue length does an incoming req see
system.physmem.wrQLenPdf::58                      118                       # What write queue length does an incoming req see
system.physmem.wrQLenPdf::59                       22                       # What write queue length does an incoming req see
system.physmem.wrQLenPdf::60                       13                       # What write queue length does an incoming req see
system.physmem.wrQLenPdf::61                       12                       # What write queue length does an incoming req see
system.physmem.wrQLenPdf::62                        8                       # What write queue length does an incoming req see
system.physmem.wrQLenPdf::63                       10                       # What write queue length does an incoming req see
system.physmem.bytesPerActivate::samples        15110                       # Bytes accessed per row activation
system.physmem.bytesPerActivate::mean      511.250298                       # Bytes accessed per row activation
system.physmem.bytesPerActivate::gmean     300.938727                       # Bytes accessed per row activation
system.physmem.bytesPerActivate::stdev     421.415256                       # Bytes accessed per row activation
system.physmem.bytesPerActivate::0-127           3831     25.35%     25.35% # Bytes accessed per row activation
system.physmem.bytesPerActivate::128-255         2740     18.13%     43.49% # Bytes accessed per row activation
system.physmem.bytesPerActivate::256-383         1074      7.11%     50.60% # Bytes accessed per row activation
system.physmem.bytesPerActivate::384-511          703      4.65%     55.25% # Bytes accessed per row activation
system.physmem.bytesPerActivate::512-639          520      3.44%     58.69% # Bytes accessed per row activation
system.physmem.bytesPerActivate::640-767          360      2.38%     61.07% # Bytes accessed per row activation
system.physmem.bytesPerActivate::768-895          225      1.49%     62.56% # Bytes accessed per row activation
system.physmem.bytesPerActivate::896-1023          226      1.50%     64.06% # Bytes accessed per row activation
system.physmem.bytesPerActivate::1024-1151         5431     35.94%    100.00% # Bytes accessed per row activation
system.physmem.bytesPerActivate::total          15110                       # Bytes accessed per row activation
system.physmem.rdPerTurnAround::samples          2571                       # Reads before turning the bus around for writes
system.physmem.rdPerTurnAround::mean        37.985220                       # Reads before turning the bus around for writes
system.physmem.rdPerTurnAround::stdev      914.533013                       # Reads before turning the bus around for writes
system.physmem.rdPerTurnAround::0-2047           2569     99.92%     99.92% # Reads before turning the bus around for writes
system.physmem.rdPerTurnAround::2048-4095            1      0.04%     99.96% # Reads before turning the bus around for writes
system.physmem.rdPerTurnAround::45056-47103            1      0.04%    100.00% # Reads before turning the bus around for writes
system.physmem.rdPerTurnAround::total            2571                       # Reads before turning the bus around for writes
system.physmem.wrPerTurnAround::samples          2571                       # Writes before turning the bus around for reads
system.physmem.wrPerTurnAround::mean        17.214702                       # Writes before turning the bus around for reads
system.physmem.wrPerTurnAround::gmean       16.506808                       # Writes before turning the bus around for reads
system.physmem.wrPerTurnAround::stdev        4.396297                       # Writes before turning the bus around for reads
system.physmem.wrPerTurnAround::1                  28      1.09%      1.09% # Writes before turning the bus around for reads
system.physmem.wrPerTurnAround::2                   8      0.31%      1.40% # Writes before turning the bus around for reads
system.physmem.wrPerTurnAround::3                   1      0.04%      1.44% # Writes before turning the bus around for reads
system.physmem.wrPerTurnAround::4                   1      0.04%      1.48% # Writes before turning the bus around for reads
system.physmem.wrPerTurnAround::5                   1      0.04%      1.52% # Writes before turning the bus around for reads
system.physmem.wrPerTurnAround::6                   1      0.04%      1.56% # Writes before turning the bus around for reads
system.physmem.wrPerTurnAround::7                   2      0.08%      1.63% # Writes before turning the bus around for reads
system.physmem.wrPerTurnAround::8                   2      0.08%      1.71% # Writes before turning the bus around for reads
system.physmem.wrPerTurnAround::10                  1      0.04%      1.75% # Writes before turning the bus around for reads
system.physmem.wrPerTurnAround::15                  1      0.04%      1.79% # Writes before turning the bus around for reads
system.physmem.wrPerTurnAround::16               1798     69.93%     71.72% # Writes before turning the bus around for reads
system.physmem.wrPerTurnAround::17                 69      2.68%     74.41% # Writes before turning the bus around for reads
system.physmem.wrPerTurnAround::18                 74      2.88%     77.29% # Writes before turning the bus around for reads
system.physmem.wrPerTurnAround::19                370     14.39%     91.68% # Writes before turning the bus around for reads
system.physmem.wrPerTurnAround::20                 34      1.32%     93.00% # Writes before turning the bus around for reads
system.physmem.wrPerTurnAround::21                 19      0.74%     93.74% # Writes before turning the bus around for reads
system.physmem.wrPerTurnAround::22                 12      0.47%     94.20% # Writes before turning the bus around for reads
system.physmem.wrPerTurnAround::23                  7      0.27%     94.48% # Writes before turning the bus around for reads
system.physmem.wrPerTurnAround::24                 34      1.32%     95.80% # Writes before turning the bus around for reads
system.physmem.wrPerTurnAround::25                 15      0.58%     96.38% # Writes before turning the bus around for reads
system.physmem.wrPerTurnAround::26                  5      0.19%     96.58% # Writes before turning the bus around for reads
system.physmem.wrPerTurnAround::27                 15      0.58%     97.16% # Writes before turning the bus around for reads
system.physmem.wrPerTurnAround::28                 11      0.43%     97.59% # Writes before turning the bus around for reads
system.physmem.wrPerTurnAround::29                 14      0.54%     98.13% # Writes before turning the bus around for reads
system.physmem.wrPerTurnAround::30                  4      0.16%     98.29% # Writes before turning the bus around for reads
system.physmem.wrPerTurnAround::31                  5      0.19%     98.48% # Writes before turning the bus around for reads
system.physmem.wrPerTurnAround::32                  6      0.23%     98.72% # Writes before turning the bus around for reads
system.physmem.wrPerTurnAround::33                  3      0.12%     98.83% # Writes before turning the bus around for reads
system.physmem.wrPerTurnAround::34                  1      0.04%     98.87% # Writes before turning the bus around for reads
system.physmem.wrPerTurnAround::35                  1      0.04%     98.91% # Writes before turning the bus around for reads
system.physmem.wrPerTurnAround::36                  2      0.08%     98.99% # Writes before turning the bus around for reads
system.physmem.wrPerTurnAround::37                  2      0.08%     99.07% # Writes before turning the bus around for reads
system.physmem.wrPerTurnAround::39                  3      0.12%     99.18% # Writes before turning the bus around for reads
system.physmem.wrPerTurnAround::40                  4      0.16%     99.34% # Writes before turning the bus around for reads
system.physmem.wrPerTurnAround::44                  3      0.12%     99.46% # Writes before turning the bus around for reads
system.physmem.wrPerTurnAround::47                  5      0.19%     99.65% # Writes before turning the bus around for reads
system.physmem.wrPerTurnAround::49                  2      0.08%     99.73% # Writes before turning the bus around for reads
system.physmem.wrPerTurnAround::50                  1      0.04%     99.77% # Writes before turning the bus around for reads
system.physmem.wrPerTurnAround::52                  2      0.08%     99.84% # Writes before turning the bus around for reads
system.physmem.wrPerTurnAround::53                  2      0.08%     99.92% # Writes before turning the bus around for reads
system.physmem.wrPerTurnAround::56                  2      0.08%    100.00% # Writes before turning the bus around for reads
system.physmem.wrPerTurnAround::total            2571                       # Writes before turning the bus around for reads
system.physmem.totQLat                     3372876000                       # Total ticks spent queuing
system.physmem.totMemAccLat                5050468500                       # Total ticks spent from burst creation until serviced by the DRAM
system.physmem.totBusLat                    488355000                       # Total ticks spent in databus transfers
system.physmem.totBankLat                  1189237500                       # Total ticks spent accessing banks
system.physmem.avgQLat                       34533.03                       # Average queueing delay per DRAM burst
system.physmem.avgBankLat                    12175.95                       # Average bank access latency per DRAM burst
system.physmem.avgBusLat                      5000.00                       # Average bus latency per DRAM burst
system.physmem.avgMemAccLat                  51708.99                       # Average memory access latency per DRAM burst
system.physmem.avgRdBW                           3.39                       # Average DRAM read bandwidth in MiByte/s
system.physmem.avgWrBW                           1.54                       # Average achieved write bandwidth in MiByte/s
system.physmem.avgRdBWSys                        3.39                       # Average system read bandwidth in MiByte/s
system.physmem.avgWrBWSys                        1.54                       # Average system write bandwidth in MiByte/s
system.physmem.peakBW                        12800.00                       # Theoretical peak bandwidth in MiByte/s
system.physmem.busUtil                           0.04                       # Data bus utilization in percentage
system.physmem.busUtilRead                       0.03                       # Data bus utilization in percentage for reads
system.physmem.busUtilWrite                      0.01                       # Data bus utilization in percentage for writes
system.physmem.avgRdQLen                         1.08                       # Average read queue length when enqueuing
system.physmem.avgWrQLen                         4.13                       # Average write queue length when enqueuing
system.physmem.readRowHits                      85060                       # Number of row buffer hits during reads
system.physmem.writeRowHits                     35225                       # Number of row buffer hits during writes
system.physmem.readRowHitRate                   87.09                       # Row buffer hit rate for reads
system.physmem.writeRowHitRate                  79.55                       # Row buffer hit rate for writes
system.physmem.avgGap                     12972053.86                       # Average gap between requests
system.physmem.pageHitRate                      84.74                       # Row buffer hit rate, read and write combined
system.physmem.prechargeAllPercent               0.21                       # Percentage of time for which DRAM has all the banks in precharge state
system.membus.throughput                     19527312                       # Throughput (bytes/s)
system.membus.trans_dist::ReadReq               44337                       # Transaction distribution
system.membus.trans_dist::ReadResp              44306                       # Transaction distribution
system.membus.trans_dist::WriteReq               3779                       # Transaction distribution
system.membus.trans_dist::WriteResp              3779                       # Transaction distribution
system.membus.trans_dist::Writeback             44282                       # Transaction distribution
system.membus.trans_dist::UpgradeReq               42                       # Transaction distribution
system.membus.trans_dist::UpgradeResp              42                       # Transaction distribution
system.membus.trans_dist::ReadExReq             56476                       # Transaction distribution
system.membus.trans_dist::ReadExResp            56476                       # Transaction distribution
system.membus.trans_dist::BadAddressError           31                       # Transaction distribution
system.membus.pkt_count_system.l2c.mem_side::system.bridge.slave        13428                       # Packet count per connected master and slave (bytes)
system.membus.pkt_count_system.l2c.mem_side::system.physmem.port       189189                       # Packet count per connected master and slave (bytes)
system.membus.pkt_count_system.l2c.mem_side::system.membus.badaddr_responder.pio           62                       # Packet count per connected master and slave (bytes)
system.membus.pkt_count_system.l2c.mem_side::total       202679                       # Packet count per connected master and slave (bytes)
system.membus.pkt_count_system.iocache.mem_side::system.physmem.port        50712                       # Packet count per connected master and slave (bytes)
system.membus.pkt_count_system.iocache.mem_side::total        50712                       # Packet count per connected master and slave (bytes)
system.membus.pkt_count::total                 253391                       # Packet count per connected master and slave (bytes)
system.membus.tot_pkt_size_system.l2c.mem_side::system.bridge.slave        15748                       # Cumulative packet size per connected master and slave (bytes)
system.membus.tot_pkt_size_system.l2c.mem_side::system.physmem.port      6926464                       # Cumulative packet size per connected master and slave (bytes)
system.membus.tot_pkt_size_system.l2c.mem_side::total      6942212                       # Cumulative packet size per connected master and slave (bytes)
system.membus.tot_pkt_size_system.iocache.mem_side::system.physmem.port      2159808                       # Cumulative packet size per connected master and slave (bytes)
system.membus.tot_pkt_size_system.iocache.mem_side::total      2159808                       # Cumulative packet size per connected master and slave (bytes)
system.membus.tot_pkt_size::total             9102020                       # Cumulative packet size per connected master and slave (bytes)
system.membus.data_through_bus               35972872                       # Total data (bytes)
system.membus.snoop_data_through_bus             9984                       # Total snoop data (bytes)
system.membus.reqLayer0.occupancy            12574500                       # Layer occupancy (ticks)
system.membus.reqLayer0.utilization               0.0                       # Layer utilization (%)
system.membus.reqLayer1.occupancy           513408250                       # Layer occupancy (ticks)
system.membus.reqLayer1.utilization               0.0                       # Layer utilization (%)
system.membus.reqLayer2.occupancy               40000                       # Layer occupancy (ticks)
system.membus.reqLayer2.utilization               0.0                       # Layer utilization (%)
system.membus.respLayer1.occupancy          761373958                       # Layer occupancy (ticks)
system.membus.respLayer1.utilization              0.0                       # Layer utilization (%)
system.membus.respLayer2.occupancy          153163000                       # Layer occupancy (ticks)
system.membus.respLayer2.utilization              0.0                       # Layer utilization (%)
system.cpu_clk_domain.clock                       500                       # Clock period in ticks
system.l2c.tags.replacements                   337430                       # number of replacements
system.l2c.tags.tagsinuse                65422.148259                       # Cycle average of tags in use
system.l2c.tags.total_refs                    2473441                       # Total number of references to valid blocks.
system.l2c.tags.sampled_refs                   402593                       # Sample count of references to valid blocks.
system.l2c.tags.avg_refs                     6.143775                       # Average number of references to valid blocks.
system.l2c.tags.warmup_cycle                614754000                       # Cycle when the warmup percentage was hit.
system.l2c.tags.occ_blocks::writebacks   54880.563920                       # Average occupied blocks per requestor
system.l2c.tags.occ_blocks::cpu0.inst     2458.853214                       # Average occupied blocks per requestor
system.l2c.tags.occ_blocks::cpu0.data     2711.613848                       # Average occupied blocks per requestor
system.l2c.tags.occ_blocks::cpu1.inst      517.416897                       # Average occupied blocks per requestor
system.l2c.tags.occ_blocks::cpu1.data      618.305247                       # Average occupied blocks per requestor
system.l2c.tags.occ_blocks::cpu2.inst     2161.633442                       # Average occupied blocks per requestor
system.l2c.tags.occ_blocks::cpu2.data     2073.761691                       # Average occupied blocks per requestor
system.l2c.tags.occ_percent::writebacks      0.837411                       # Average percentage of cache occupancy
system.l2c.tags.occ_percent::cpu0.inst       0.037519                       # Average percentage of cache occupancy
system.l2c.tags.occ_percent::cpu0.data       0.041376                       # Average percentage of cache occupancy
system.l2c.tags.occ_percent::cpu1.inst       0.007895                       # Average percentage of cache occupancy
system.l2c.tags.occ_percent::cpu1.data       0.009435                       # Average percentage of cache occupancy
system.l2c.tags.occ_percent::cpu2.inst       0.032984                       # Average percentage of cache occupancy
system.l2c.tags.occ_percent::cpu2.data       0.031643                       # Average percentage of cache occupancy
system.l2c.tags.occ_percent::total           0.998263                       # Average percentage of cache occupancy
system.l2c.tags.occ_task_id_blocks::1024        65163                       # Occupied blocks per task id
system.l2c.tags.age_task_id_blocks_1024::0          168                       # Occupied blocks per task id
system.l2c.tags.age_task_id_blocks_1024::1         1047                       # Occupied blocks per task id
system.l2c.tags.age_task_id_blocks_1024::2         5588                       # Occupied blocks per task id
system.l2c.tags.age_task_id_blocks_1024::3         2973                       # Occupied blocks per task id
system.l2c.tags.age_task_id_blocks_1024::4        55387                       # Occupied blocks per task id
system.l2c.tags.occ_task_id_percent::1024     0.994308                       # Percentage of cache occupancy per task id
system.l2c.tags.tag_accesses                 26153114                       # Number of tag accesses
system.l2c.tags.data_accesses                26153114                       # Number of data accesses
system.l2c.ReadReq_hits::cpu0.inst             521024                       # number of ReadReq hits
system.l2c.ReadReq_hits::cpu0.data             493028                       # number of ReadReq hits
system.l2c.ReadReq_hits::cpu1.inst             125251                       # number of ReadReq hits
system.l2c.ReadReq_hits::cpu1.data              84722                       # number of ReadReq hits
system.l2c.ReadReq_hits::cpu2.inst             291154                       # number of ReadReq hits
system.l2c.ReadReq_hits::cpu2.data             239311                       # number of ReadReq hits
system.l2c.ReadReq_hits::total                1754490                       # number of ReadReq hits
system.l2c.Writeback_hits::writebacks          836107                       # number of Writeback hits
system.l2c.Writeback_hits::total               836107                       # number of Writeback hits
system.l2c.UpgradeReq_hits::cpu0.data               3                       # number of UpgradeReq hits
system.l2c.UpgradeReq_hits::cpu1.data               1                       # number of UpgradeReq hits
system.l2c.UpgradeReq_hits::cpu2.data               3                       # number of UpgradeReq hits
system.l2c.UpgradeReq_hits::total                   7                       # number of UpgradeReq hits
system.l2c.SCUpgradeReq_hits::cpu2.data             1                       # number of SCUpgradeReq hits
system.l2c.SCUpgradeReq_hits::total                 1                       # number of SCUpgradeReq hits
system.l2c.ReadExReq_hits::cpu0.data            93137                       # number of ReadExReq hits
system.l2c.ReadExReq_hits::cpu1.data            26426                       # number of ReadExReq hits
system.l2c.ReadExReq_hits::cpu2.data            67420                       # number of ReadExReq hits
system.l2c.ReadExReq_hits::total               186983                       # number of ReadExReq hits
system.l2c.demand_hits::cpu0.inst              521024                       # number of demand (read+write) hits
system.l2c.demand_hits::cpu0.data              586165                       # number of demand (read+write) hits
system.l2c.demand_hits::cpu1.inst              125251                       # number of demand (read+write) hits
system.l2c.demand_hits::cpu1.data              111148                       # number of demand (read+write) hits
system.l2c.demand_hits::cpu2.inst              291154                       # number of demand (read+write) hits
system.l2c.demand_hits::cpu2.data              306731                       # number of demand (read+write) hits
system.l2c.demand_hits::total                 1941473                       # number of demand (read+write) hits
system.l2c.overall_hits::cpu0.inst             521024                       # number of overall hits
system.l2c.overall_hits::cpu0.data             586165                       # number of overall hits
system.l2c.overall_hits::cpu1.inst             125251                       # number of overall hits
system.l2c.overall_hits::cpu1.data             111148                       # number of overall hits
system.l2c.overall_hits::cpu2.inst             291154                       # number of overall hits
system.l2c.overall_hits::cpu2.data             306731                       # number of overall hits
system.l2c.overall_hits::total                1941473                       # number of overall hits
system.l2c.ReadReq_misses::cpu0.inst             7641                       # number of ReadReq misses
system.l2c.ReadReq_misses::cpu0.data           238596                       # number of ReadReq misses
system.l2c.ReadReq_misses::cpu1.inst             2245                       # number of ReadReq misses
system.l2c.ReadReq_misses::cpu1.data            16796                       # number of ReadReq misses
system.l2c.ReadReq_misses::cpu2.inst             4459                       # number of ReadReq misses
system.l2c.ReadReq_misses::cpu2.data            17833                       # number of ReadReq misses
system.l2c.ReadReq_misses::total               287570                       # number of ReadReq misses
system.l2c.UpgradeReq_misses::cpu0.data             8                       # number of UpgradeReq misses
system.l2c.UpgradeReq_misses::cpu2.data             9                       # number of UpgradeReq misses
system.l2c.UpgradeReq_misses::total                17                       # number of UpgradeReq misses
system.l2c.ReadExReq_misses::cpu0.data          76153                       # number of ReadExReq misses
system.l2c.ReadExReq_misses::cpu1.data          18140                       # number of ReadExReq misses
system.l2c.ReadExReq_misses::cpu2.data          21473                       # number of ReadExReq misses
system.l2c.ReadExReq_misses::total             115766                       # number of ReadExReq misses
system.l2c.demand_misses::cpu0.inst              7641                       # number of demand (read+write) misses
system.l2c.demand_misses::cpu0.data            314749                       # number of demand (read+write) misses
system.l2c.demand_misses::cpu1.inst              2245                       # number of demand (read+write) misses
system.l2c.demand_misses::cpu1.data             34936                       # number of demand (read+write) misses
system.l2c.demand_misses::cpu2.inst              4459                       # number of demand (read+write) misses
system.l2c.demand_misses::cpu2.data             39306                       # number of demand (read+write) misses
system.l2c.demand_misses::total                403336                       # number of demand (read+write) misses
system.l2c.overall_misses::cpu0.inst             7641                       # number of overall misses
system.l2c.overall_misses::cpu0.data           314749                       # number of overall misses
system.l2c.overall_misses::cpu1.inst             2245                       # number of overall misses
system.l2c.overall_misses::cpu1.data            34936                       # number of overall misses
system.l2c.overall_misses::cpu2.inst             4459                       # number of overall misses
system.l2c.overall_misses::cpu2.data            39306                       # number of overall misses
system.l2c.overall_misses::total               403336                       # number of overall misses
system.l2c.ReadReq_miss_latency::cpu1.inst    162937747                       # number of ReadReq miss cycles
system.l2c.ReadReq_miss_latency::cpu1.data   1122716750                       # number of ReadReq miss cycles
system.l2c.ReadReq_miss_latency::cpu2.inst    340229750                       # number of ReadReq miss cycles
system.l2c.ReadReq_miss_latency::cpu2.data   1192796250                       # number of ReadReq miss cycles
system.l2c.ReadReq_miss_latency::total     2818680497                       # number of ReadReq miss cycles
system.l2c.UpgradeReq_miss_latency::cpu2.data       286997                       # number of UpgradeReq miss cycles
system.l2c.UpgradeReq_miss_latency::total       286997                       # number of UpgradeReq miss cycles
system.l2c.ReadExReq_miss_latency::cpu1.data   1236065740                       # number of ReadExReq miss cycles
system.l2c.ReadExReq_miss_latency::cpu2.data   1785443227                       # number of ReadExReq miss cycles
system.l2c.ReadExReq_miss_latency::total   3021508967                       # number of ReadExReq miss cycles
system.l2c.demand_miss_latency::cpu1.inst    162937747                       # number of demand (read+write) miss cycles
system.l2c.demand_miss_latency::cpu1.data   2358782490                       # number of demand (read+write) miss cycles
system.l2c.demand_miss_latency::cpu2.inst    340229750                       # number of demand (read+write) miss cycles
system.l2c.demand_miss_latency::cpu2.data   2978239477                       # number of demand (read+write) miss cycles
system.l2c.demand_miss_latency::total      5840189464                       # number of demand (read+write) miss cycles
system.l2c.overall_miss_latency::cpu1.inst    162937747                       # number of overall miss cycles
system.l2c.overall_miss_latency::cpu1.data   2358782490                       # number of overall miss cycles
system.l2c.overall_miss_latency::cpu2.inst    340229750                       # number of overall miss cycles
system.l2c.overall_miss_latency::cpu2.data   2978239477                       # number of overall miss cycles
system.l2c.overall_miss_latency::total     5840189464                       # number of overall miss cycles
system.l2c.ReadReq_accesses::cpu0.inst         528665                       # number of ReadReq accesses(hits+misses)
system.l2c.ReadReq_accesses::cpu0.data         731624                       # number of ReadReq accesses(hits+misses)
system.l2c.ReadReq_accesses::cpu1.inst         127496                       # number of ReadReq accesses(hits+misses)
system.l2c.ReadReq_accesses::cpu1.data         101518                       # number of ReadReq accesses(hits+misses)
system.l2c.ReadReq_accesses::cpu2.inst         295613                       # number of ReadReq accesses(hits+misses)
system.l2c.ReadReq_accesses::cpu2.data         257144                       # number of ReadReq accesses(hits+misses)
system.l2c.ReadReq_accesses::total            2042060                       # number of ReadReq accesses(hits+misses)
system.l2c.Writeback_accesses::writebacks       836107                       # number of Writeback accesses(hits+misses)
system.l2c.Writeback_accesses::total           836107                       # number of Writeback accesses(hits+misses)
system.l2c.UpgradeReq_accesses::cpu0.data           11                       # number of UpgradeReq accesses(hits+misses)
system.l2c.UpgradeReq_accesses::cpu1.data            1                       # number of UpgradeReq accesses(hits+misses)
system.l2c.UpgradeReq_accesses::cpu2.data           12                       # number of UpgradeReq accesses(hits+misses)
system.l2c.UpgradeReq_accesses::total              24                       # number of UpgradeReq accesses(hits+misses)
system.l2c.SCUpgradeReq_accesses::cpu2.data            1                       # number of SCUpgradeReq accesses(hits+misses)
system.l2c.SCUpgradeReq_accesses::total             1                       # number of SCUpgradeReq accesses(hits+misses)
system.l2c.ReadExReq_accesses::cpu0.data       169290                       # number of ReadExReq accesses(hits+misses)
system.l2c.ReadExReq_accesses::cpu1.data        44566                       # number of ReadExReq accesses(hits+misses)
system.l2c.ReadExReq_accesses::cpu2.data        88893                       # number of ReadExReq accesses(hits+misses)
system.l2c.ReadExReq_accesses::total           302749                       # number of ReadExReq accesses(hits+misses)
system.l2c.demand_accesses::cpu0.inst          528665                       # number of demand (read+write) accesses
system.l2c.demand_accesses::cpu0.data          900914                       # number of demand (read+write) accesses
system.l2c.demand_accesses::cpu1.inst          127496                       # number of demand (read+write) accesses
system.l2c.demand_accesses::cpu1.data          146084                       # number of demand (read+write) accesses
system.l2c.demand_accesses::cpu2.inst          295613                       # number of demand (read+write) accesses
system.l2c.demand_accesses::cpu2.data          346037                       # number of demand (read+write) accesses
system.l2c.demand_accesses::total             2344809                       # number of demand (read+write) accesses
system.l2c.overall_accesses::cpu0.inst         528665                       # number of overall (read+write) accesses
system.l2c.overall_accesses::cpu0.data         900914                       # number of overall (read+write) accesses
system.l2c.overall_accesses::cpu1.inst         127496                       # number of overall (read+write) accesses
system.l2c.overall_accesses::cpu1.data         146084                       # number of overall (read+write) accesses
system.l2c.overall_accesses::cpu2.inst         295613                       # number of overall (read+write) accesses
system.l2c.overall_accesses::cpu2.data         346037                       # number of overall (read+write) accesses
system.l2c.overall_accesses::total            2344809                       # number of overall (read+write) accesses
system.l2c.ReadReq_miss_rate::cpu0.inst      0.014453                       # miss rate for ReadReq accesses
system.l2c.ReadReq_miss_rate::cpu0.data      0.326118                       # miss rate for ReadReq accesses
system.l2c.ReadReq_miss_rate::cpu1.inst      0.017608                       # miss rate for ReadReq accesses
system.l2c.ReadReq_miss_rate::cpu1.data      0.165448                       # miss rate for ReadReq accesses
system.l2c.ReadReq_miss_rate::cpu2.inst      0.015084                       # miss rate for ReadReq accesses
system.l2c.ReadReq_miss_rate::cpu2.data      0.069350                       # miss rate for ReadReq accesses
system.l2c.ReadReq_miss_rate::total          0.140823                       # miss rate for ReadReq accesses
system.l2c.UpgradeReq_miss_rate::cpu0.data     0.727273                       # miss rate for UpgradeReq accesses
system.l2c.UpgradeReq_miss_rate::cpu2.data     0.750000                       # miss rate for UpgradeReq accesses
system.l2c.UpgradeReq_miss_rate::total       0.708333                       # miss rate for UpgradeReq accesses
system.l2c.ReadExReq_miss_rate::cpu0.data     0.449838                       # miss rate for ReadExReq accesses
system.l2c.ReadExReq_miss_rate::cpu1.data     0.407037                       # miss rate for ReadExReq accesses
system.l2c.ReadExReq_miss_rate::cpu2.data     0.241560                       # miss rate for ReadExReq accesses
system.l2c.ReadExReq_miss_rate::total        0.382383                       # miss rate for ReadExReq accesses
system.l2c.demand_miss_rate::cpu0.inst       0.014453                       # miss rate for demand accesses
system.l2c.demand_miss_rate::cpu0.data       0.349366                       # miss rate for demand accesses
system.l2c.demand_miss_rate::cpu1.inst       0.017608                       # miss rate for demand accesses
system.l2c.demand_miss_rate::cpu1.data       0.239150                       # miss rate for demand accesses
system.l2c.demand_miss_rate::cpu2.inst       0.015084                       # miss rate for demand accesses
system.l2c.demand_miss_rate::cpu2.data       0.113589                       # miss rate for demand accesses
system.l2c.demand_miss_rate::total           0.172012                       # miss rate for demand accesses
system.l2c.overall_miss_rate::cpu0.inst      0.014453                       # miss rate for overall accesses
system.l2c.overall_miss_rate::cpu0.data      0.349366                       # miss rate for overall accesses
system.l2c.overall_miss_rate::cpu1.inst      0.017608                       # miss rate for overall accesses
system.l2c.overall_miss_rate::cpu1.data      0.239150                       # miss rate for overall accesses
system.l2c.overall_miss_rate::cpu2.inst      0.015084                       # miss rate for overall accesses
system.l2c.overall_miss_rate::cpu2.data      0.113589                       # miss rate for overall accesses
system.l2c.overall_miss_rate::total          0.172012                       # miss rate for overall accesses
system.l2c.ReadReq_avg_miss_latency::cpu1.inst 72578.061024                       # average ReadReq miss latency
system.l2c.ReadReq_avg_miss_latency::cpu1.data 66844.293284                       # average ReadReq miss latency
system.l2c.ReadReq_avg_miss_latency::cpu2.inst 76301.805338                       # average ReadReq miss latency
system.l2c.ReadReq_avg_miss_latency::cpu2.data 66887.021253                       # average ReadReq miss latency
system.l2c.ReadReq_avg_miss_latency::total  9801.719571                       # average ReadReq miss latency
system.l2c.UpgradeReq_avg_miss_latency::cpu2.data 31888.555556                       # average UpgradeReq miss latency
system.l2c.UpgradeReq_avg_miss_latency::total 16882.176471                       # average UpgradeReq miss latency
system.l2c.ReadExReq_avg_miss_latency::cpu1.data 68140.338479                       # average ReadExReq miss latency
system.l2c.ReadExReq_avg_miss_latency::cpu2.data 83148.289806                       # average ReadExReq miss latency
system.l2c.ReadExReq_avg_miss_latency::total 26100.141380                       # average ReadExReq miss latency
system.l2c.demand_avg_miss_latency::cpu1.inst 72578.061024                       # average overall miss latency
system.l2c.demand_avg_miss_latency::cpu1.data 67517.245535                       # average overall miss latency
system.l2c.demand_avg_miss_latency::cpu2.inst 76301.805338                       # average overall miss latency
system.l2c.demand_avg_miss_latency::cpu2.data 75770.606956                       # average overall miss latency
system.l2c.demand_avg_miss_latency::total 14479.712855                       # average overall miss latency
system.l2c.overall_avg_miss_latency::cpu1.inst 72578.061024                       # average overall miss latency
system.l2c.overall_avg_miss_latency::cpu1.data 67517.245535                       # average overall miss latency
system.l2c.overall_avg_miss_latency::cpu2.inst 76301.805338                       # average overall miss latency
system.l2c.overall_avg_miss_latency::cpu2.data 75770.606956                       # average overall miss latency
system.l2c.overall_avg_miss_latency::total 14479.712855                       # average overall miss latency
system.l2c.blocked_cycles::no_mshrs                 0                       # number of cycles access was blocked
system.l2c.blocked_cycles::no_targets               0                       # number of cycles access was blocked
system.l2c.blocked::no_mshrs                        0                       # number of cycles access was blocked
system.l2c.blocked::no_targets                      0                       # number of cycles access was blocked
system.l2c.avg_blocked_cycles::no_mshrs           nan                       # average number of cycles each access was blocked
system.l2c.avg_blocked_cycles::no_targets          nan                       # average number of cycles each access was blocked
system.l2c.fast_writes                              0                       # number of fast writes performed
system.l2c.cache_copies                             0                       # number of cache copies performed
system.l2c.writebacks::writebacks               75099                       # number of writebacks
system.l2c.writebacks::total                    75099                       # number of writebacks
system.l2c.ReadReq_mshr_misses::cpu1.inst         2245                       # number of ReadReq MSHR misses
system.l2c.ReadReq_mshr_misses::cpu1.data        16796                       # number of ReadReq MSHR misses
system.l2c.ReadReq_mshr_misses::cpu2.inst         4459                       # number of ReadReq MSHR misses
system.l2c.ReadReq_mshr_misses::cpu2.data        17833                       # number of ReadReq MSHR misses
system.l2c.ReadReq_mshr_misses::total           41333                       # number of ReadReq MSHR misses
system.l2c.UpgradeReq_mshr_misses::cpu2.data            9                       # number of UpgradeReq MSHR misses
system.l2c.UpgradeReq_mshr_misses::total            9                       # number of UpgradeReq MSHR misses
system.l2c.ReadExReq_mshr_misses::cpu1.data        18140                       # number of ReadExReq MSHR misses
system.l2c.ReadExReq_mshr_misses::cpu2.data        21473                       # number of ReadExReq MSHR misses
system.l2c.ReadExReq_mshr_misses::total         39613                       # number of ReadExReq MSHR misses
system.l2c.demand_mshr_misses::cpu1.inst         2245                       # number of demand (read+write) MSHR misses
system.l2c.demand_mshr_misses::cpu1.data        34936                       # number of demand (read+write) MSHR misses
system.l2c.demand_mshr_misses::cpu2.inst         4459                       # number of demand (read+write) MSHR misses
system.l2c.demand_mshr_misses::cpu2.data        39306                       # number of demand (read+write) MSHR misses
system.l2c.demand_mshr_misses::total            80946                       # number of demand (read+write) MSHR misses
system.l2c.overall_mshr_misses::cpu1.inst         2245                       # number of overall MSHR misses
system.l2c.overall_mshr_misses::cpu1.data        34936                       # number of overall MSHR misses
system.l2c.overall_mshr_misses::cpu2.inst         4459                       # number of overall MSHR misses
system.l2c.overall_mshr_misses::cpu2.data        39306                       # number of overall MSHR misses
system.l2c.overall_mshr_misses::total           80946                       # number of overall MSHR misses
system.l2c.ReadReq_mshr_miss_latency::cpu1.inst    134357753                       # number of ReadReq MSHR miss cycles
system.l2c.ReadReq_mshr_miss_latency::cpu1.data    912417250                       # number of ReadReq MSHR miss cycles
system.l2c.ReadReq_mshr_miss_latency::cpu2.inst    284084750                       # number of ReadReq MSHR miss cycles
system.l2c.ReadReq_mshr_miss_latency::cpu2.data    973268750                       # number of ReadReq MSHR miss cycles
system.l2c.ReadReq_mshr_miss_latency::total   2304128503                       # number of ReadReq MSHR miss cycles
system.l2c.UpgradeReq_mshr_miss_latency::cpu2.data       241006                       # number of UpgradeReq MSHR miss cycles
system.l2c.UpgradeReq_mshr_miss_latency::total       241006                       # number of UpgradeReq MSHR miss cycles
system.l2c.ReadExReq_mshr_miss_latency::cpu1.data   1008170260                       # number of ReadExReq MSHR miss cycles
system.l2c.ReadExReq_mshr_miss_latency::cpu2.data   1522069773                       # number of ReadExReq MSHR miss cycles
system.l2c.ReadExReq_mshr_miss_latency::total   2530240033                       # number of ReadExReq MSHR miss cycles
system.l2c.demand_mshr_miss_latency::cpu1.inst    134357753                       # number of demand (read+write) MSHR miss cycles
system.l2c.demand_mshr_miss_latency::cpu1.data   1920587510                       # number of demand (read+write) MSHR miss cycles
system.l2c.demand_mshr_miss_latency::cpu2.inst    284084750                       # number of demand (read+write) MSHR miss cycles
system.l2c.demand_mshr_miss_latency::cpu2.data   2495338523                       # number of demand (read+write) MSHR miss cycles
system.l2c.demand_mshr_miss_latency::total   4834368536                       # number of demand (read+write) MSHR miss cycles
system.l2c.overall_mshr_miss_latency::cpu1.inst    134357753                       # number of overall MSHR miss cycles
system.l2c.overall_mshr_miss_latency::cpu1.data   1920587510                       # number of overall MSHR miss cycles
system.l2c.overall_mshr_miss_latency::cpu2.inst    284084750                       # number of overall MSHR miss cycles
system.l2c.overall_mshr_miss_latency::cpu2.data   2495338523                       # number of overall MSHR miss cycles
system.l2c.overall_mshr_miss_latency::total   4834368536                       # number of overall MSHR miss cycles
system.l2c.ReadReq_mshr_uncacheable_latency::cpu1.data    279416000                       # number of ReadReq MSHR uncacheable cycles
system.l2c.ReadReq_mshr_uncacheable_latency::cpu2.data    295991000                       # number of ReadReq MSHR uncacheable cycles
system.l2c.ReadReq_mshr_uncacheable_latency::total    575407000                       # number of ReadReq MSHR uncacheable cycles
system.l2c.WriteReq_mshr_uncacheable_latency::cpu1.data    345820000                       # number of WriteReq MSHR uncacheable cycles
system.l2c.WriteReq_mshr_uncacheable_latency::cpu2.data    406371500                       # number of WriteReq MSHR uncacheable cycles
system.l2c.WriteReq_mshr_uncacheable_latency::total    752191500                       # number of WriteReq MSHR uncacheable cycles
system.l2c.overall_mshr_uncacheable_latency::cpu1.data    625236000                       # number of overall MSHR uncacheable cycles
system.l2c.overall_mshr_uncacheable_latency::cpu2.data    702362500                       # number of overall MSHR uncacheable cycles
system.l2c.overall_mshr_uncacheable_latency::total   1327598500                       # number of overall MSHR uncacheable cycles
system.l2c.ReadReq_mshr_miss_rate::cpu1.inst     0.017608                       # mshr miss rate for ReadReq accesses
system.l2c.ReadReq_mshr_miss_rate::cpu1.data     0.165448                       # mshr miss rate for ReadReq accesses
system.l2c.ReadReq_mshr_miss_rate::cpu2.inst     0.015084                       # mshr miss rate for ReadReq accesses
system.l2c.ReadReq_mshr_miss_rate::cpu2.data     0.069350                       # mshr miss rate for ReadReq accesses
system.l2c.ReadReq_mshr_miss_rate::total     0.020241                       # mshr miss rate for ReadReq accesses
system.l2c.UpgradeReq_mshr_miss_rate::cpu2.data     0.750000                       # mshr miss rate for UpgradeReq accesses
system.l2c.UpgradeReq_mshr_miss_rate::total     0.375000                       # mshr miss rate for UpgradeReq accesses
system.l2c.ReadExReq_mshr_miss_rate::cpu1.data     0.407037                       # mshr miss rate for ReadExReq accesses
system.l2c.ReadExReq_mshr_miss_rate::cpu2.data     0.241560                       # mshr miss rate for ReadExReq accesses
system.l2c.ReadExReq_mshr_miss_rate::total     0.130844                       # mshr miss rate for ReadExReq accesses
system.l2c.demand_mshr_miss_rate::cpu1.inst     0.017608                       # mshr miss rate for demand accesses
system.l2c.demand_mshr_miss_rate::cpu1.data     0.239150                       # mshr miss rate for demand accesses
system.l2c.demand_mshr_miss_rate::cpu2.inst     0.015084                       # mshr miss rate for demand accesses
system.l2c.demand_mshr_miss_rate::cpu2.data     0.113589                       # mshr miss rate for demand accesses
system.l2c.demand_mshr_miss_rate::total      0.034521                       # mshr miss rate for demand accesses
system.l2c.overall_mshr_miss_rate::cpu1.inst     0.017608                       # mshr miss rate for overall accesses
system.l2c.overall_mshr_miss_rate::cpu1.data     0.239150                       # mshr miss rate for overall accesses
system.l2c.overall_mshr_miss_rate::cpu2.inst     0.015084                       # mshr miss rate for overall accesses
system.l2c.overall_mshr_miss_rate::cpu2.data     0.113589                       # mshr miss rate for overall accesses
system.l2c.overall_mshr_miss_rate::total     0.034521                       # mshr miss rate for overall accesses
system.l2c.ReadReq_avg_mshr_miss_latency::cpu1.inst 59847.551448                       # average ReadReq mshr miss latency
system.l2c.ReadReq_avg_mshr_miss_latency::cpu1.data 54323.484758                       # average ReadReq mshr miss latency
system.l2c.ReadReq_avg_mshr_miss_latency::cpu2.inst 63710.417134                       # average ReadReq mshr miss latency
system.l2c.ReadReq_avg_mshr_miss_latency::cpu2.data 54576.837885                       # average ReadReq mshr miss latency
system.l2c.ReadReq_avg_mshr_miss_latency::total 55745.493988                       # average ReadReq mshr miss latency
system.l2c.UpgradeReq_avg_mshr_miss_latency::cpu2.data 26778.444444                       # average UpgradeReq mshr miss latency
system.l2c.UpgradeReq_avg_mshr_miss_latency::total 26778.444444                       # average UpgradeReq mshr miss latency
system.l2c.ReadExReq_avg_mshr_miss_latency::cpu1.data 55577.191841                       # average ReadExReq mshr miss latency
system.l2c.ReadExReq_avg_mshr_miss_latency::cpu2.data 70882.958739                       # average ReadExReq mshr miss latency
system.l2c.ReadExReq_avg_mshr_miss_latency::total 63873.981597                       # average ReadExReq mshr miss latency
system.l2c.demand_avg_mshr_miss_latency::cpu1.inst 59847.551448                       # average overall mshr miss latency
system.l2c.demand_avg_mshr_miss_latency::cpu1.data 54974.453572                       # average overall mshr miss latency
system.l2c.demand_avg_mshr_miss_latency::cpu2.inst 63710.417134                       # average overall mshr miss latency
system.l2c.demand_avg_mshr_miss_latency::cpu2.data 63484.926551                       # average overall mshr miss latency
system.l2c.demand_avg_mshr_miss_latency::total 59723.377758                       # average overall mshr miss latency
system.l2c.overall_avg_mshr_miss_latency::cpu1.inst 59847.551448                       # average overall mshr miss latency
system.l2c.overall_avg_mshr_miss_latency::cpu1.data 54974.453572                       # average overall mshr miss latency
system.l2c.overall_avg_mshr_miss_latency::cpu2.inst 63710.417134                       # average overall mshr miss latency
system.l2c.overall_avg_mshr_miss_latency::cpu2.data 63484.926551                       # average overall mshr miss latency
system.l2c.overall_avg_mshr_miss_latency::total 59723.377758                       # average overall mshr miss latency
system.l2c.ReadReq_avg_mshr_uncacheable_latency::cpu1.data          inf                       # average ReadReq mshr uncacheable latency
system.l2c.ReadReq_avg_mshr_uncacheable_latency::cpu2.data          inf                       # average ReadReq mshr uncacheable latency
system.l2c.ReadReq_avg_mshr_uncacheable_latency::total          inf                       # average ReadReq mshr uncacheable latency
system.l2c.WriteReq_avg_mshr_uncacheable_latency::cpu1.data          inf                       # average WriteReq mshr uncacheable latency
system.l2c.WriteReq_avg_mshr_uncacheable_latency::cpu2.data          inf                       # average WriteReq mshr uncacheable latency
system.l2c.WriteReq_avg_mshr_uncacheable_latency::total          inf                       # average WriteReq mshr uncacheable latency
system.l2c.overall_avg_mshr_uncacheable_latency::cpu1.data          inf                       # average overall mshr uncacheable latency
system.l2c.overall_avg_mshr_uncacheable_latency::cpu2.data          inf                       # average overall mshr uncacheable latency
system.l2c.overall_avg_mshr_uncacheable_latency::total          inf                       # average overall mshr uncacheable latency
system.l2c.no_allocate_misses                       0                       # Number of misses that were no-allocate
system.iocache.tags.replacements                41685                       # number of replacements
system.iocache.tags.tagsinuse                1.254944                       # Cycle average of tags in use
system.iocache.tags.total_refs                      0                       # Total number of references to valid blocks.
system.iocache.tags.sampled_refs                41701                       # Sample count of references to valid blocks.
system.iocache.tags.avg_refs                        0                       # Average number of references to valid blocks.
system.iocache.tags.warmup_cycle         1694864715000                       # Cycle when the warmup percentage was hit.
system.iocache.tags.occ_blocks::tsunami.ide     1.254944                       # Average occupied blocks per requestor
system.iocache.tags.occ_percent::tsunami.ide     0.078434                       # Average percentage of cache occupancy
system.iocache.tags.occ_percent::total       0.078434                       # Average percentage of cache occupancy
system.iocache.tags.occ_task_id_blocks::1023           16                       # Occupied blocks per task id
system.iocache.tags.age_task_id_blocks_1023::2           16                       # Occupied blocks per task id
system.iocache.tags.occ_task_id_percent::1023            1                       # Percentage of cache occupancy per task id
system.iocache.tags.tag_accesses               375525                       # Number of tag accesses
system.iocache.tags.data_accesses              375525                       # Number of data accesses
system.iocache.ReadReq_misses::tsunami.ide          173                       # number of ReadReq misses
system.iocache.ReadReq_misses::total              173                       # number of ReadReq misses
system.iocache.WriteReq_misses::tsunami.ide        41552                       # number of WriteReq misses
system.iocache.WriteReq_misses::total           41552                       # number of WriteReq misses
system.iocache.demand_misses::tsunami.ide        41725                       # number of demand (read+write) misses
system.iocache.demand_misses::total             41725                       # number of demand (read+write) misses
system.iocache.overall_misses::tsunami.ide        41725                       # number of overall misses
system.iocache.overall_misses::total            41725                       # number of overall misses
system.iocache.ReadReq_miss_latency::tsunami.ide      9303463                       # number of ReadReq miss cycles
system.iocache.ReadReq_miss_latency::total      9303463                       # number of ReadReq miss cycles
system.iocache.WriteReq_miss_latency::tsunami.ide   5375933278                       # number of WriteReq miss cycles
system.iocache.WriteReq_miss_latency::total   5375933278                       # number of WriteReq miss cycles
system.iocache.demand_miss_latency::tsunami.ide   5385236741                       # number of demand (read+write) miss cycles
system.iocache.demand_miss_latency::total   5385236741                       # number of demand (read+write) miss cycles
system.iocache.overall_miss_latency::tsunami.ide   5385236741                       # number of overall miss cycles
system.iocache.overall_miss_latency::total   5385236741                       # number of overall miss cycles
system.iocache.ReadReq_accesses::tsunami.ide          173                       # number of ReadReq accesses(hits+misses)
system.iocache.ReadReq_accesses::total            173                       # number of ReadReq accesses(hits+misses)
[...]
system.cpu2.iq.fu_full::SimdCvt                     0      0.00%     13.83% # attempts to use FU when none available
system.cpu2.iq.fu_full::SimdMisc                    0      0.00%     13.83% # attempts to use FU when none available
system.cpu2.iq.fu_full::SimdMult                    0      0.00%     13.83% # attempts to use FU when none available
system.cpu2.iq.fu_full::SimdMultAcc                 0      0.00%     13.83% # attempts to use FU when none available
system.cpu2.iq.fu_full::SimdShift                   0      0.00%     13.83% # attempts to use FU when none available
system.cpu2.iq.fu_full::SimdShiftAcc                0      0.00%     13.83% # attempts to use FU when none available
system.cpu2.iq.fu_full::SimdSqrt                    0      0.00%     13.83% # attempts to use FU when none available
system.cpu2.iq.fu_full::SimdFloatAdd                0      0.00%     13.83% # attempts to use FU when none available
system.cpu2.iq.fu_full::SimdFloatAlu                0      0.00%     13.83% # attempts to use FU when none available
system.cpu2.iq.fu_full::SimdFloatCmp                0      0.00%     13.83% # attempts to use FU when none available
system.cpu2.iq.fu_full::SimdFloatCvt                0      0.00%     13.83% # attempts to use FU when none available
system.cpu2.iq.fu_full::SimdFloatDiv                0      0.00%     13.83% # attempts to use FU when none available
system.cpu2.iq.fu_full::SimdFloatMisc               0      0.00%     13.83% # attempts to use FU when none available
system.cpu2.iq.fu_full::SimdFloatMult               0      0.00%     13.83% # attempts to use FU when none available
system.cpu2.iq.fu_full::SimdFloatMultAcc            0      0.00%     13.83% # attempts to use FU when none available
system.cpu2.iq.fu_full::SimdFloatSqrt               0      0.00%     13.83% # attempts to use FU when none available
system.cpu2.iq.fu_full::MemRead                111431     45.78%     59.60% # attempts to use FU when none available
system.cpu2.iq.fu_full::MemWrite                98340     40.40%    100.00% # attempts to use FU when none available
system.cpu2.iq.fu_full::IprAccess                   0      0.00%    100.00% # attempts to use FU when none available
system.cpu2.iq.fu_full::InstPrefetch                0      0.00%    100.00% # attempts to use FU when none available
system.cpu2.iq.FU_type_0::No_OpClass             2440      0.01%      0.01% # Type of FU issued
system.cpu2.iq.FU_type_0::IntAlu             26953534     82.68%     82.69% # Type of FU issued
system.cpu2.iq.FU_type_0::IntMult               19910      0.06%     82.75% # Type of FU issued
system.cpu2.iq.FU_type_0::IntDiv                    0      0.00%     82.75% # Type of FU issued
system.cpu2.iq.FU_type_0::FloatAdd               8410      0.03%     82.78% # Type of FU issued
system.cpu2.iq.FU_type_0::FloatCmp                  0      0.00%     82.78% # Type of FU issued
system.cpu2.iq.FU_type_0::FloatCvt                  0      0.00%     82.78% # Type of FU issued
system.cpu2.iq.FU_type_0::FloatMult                 0      0.00%     82.78% # Type of FU issued
system.cpu2.iq.FU_type_0::FloatDiv               1220      0.00%     82.78% # Type of FU issued
system.cpu2.iq.FU_type_0::FloatSqrt                 0      0.00%     82.78% # Type of FU issued
system.cpu2.iq.FU_type_0::SimdAdd                   0      0.00%     82.78% # Type of FU issued
system.cpu2.iq.FU_type_0::SimdAddAcc                0      0.00%     82.78% # Type of FU issued
system.cpu2.iq.FU_type_0::SimdAlu                   0      0.00%     82.78% # Type of FU issued
system.cpu2.iq.FU_type_0::SimdCmp                   0      0.00%     82.78% # Type of FU issued
system.cpu2.iq.FU_type_0::SimdCvt                   0      0.00%     82.78% # Type of FU issued
system.cpu2.iq.FU_type_0::SimdMisc                  0      0.00%     82.78% # Type of FU issued
system.cpu2.iq.FU_type_0::SimdMult                  0      0.00%     82.78% # Type of FU issued
system.cpu2.iq.FU_type_0::SimdMultAcc               0      0.00%     82.78% # Type of FU issued
system.cpu2.iq.FU_type_0::SimdShift                 0      0.00%     82.78% # Type of FU issued
system.cpu2.iq.FU_type_0::SimdShiftAcc              0      0.00%     82.78% # Type of FU issued
system.cpu2.iq.FU_type_0::SimdSqrt                  0      0.00%     82.78% # Type of FU issued
system.cpu2.iq.FU_type_0::SimdFloatAdd              0      0.00%     82.78% # Type of FU issued
system.cpu2.iq.FU_type_0::SimdFloatAlu              0      0.00%     82.78% # Type of FU issued
system.cpu2.iq.FU_type_0::SimdFloatCmp              0      0.00%     82.78% # Type of FU issued
system.cpu2.iq.FU_type_0::SimdFloatCvt              0      0.00%     82.78% # Type of FU issued
system.cpu2.iq.FU_type_0::SimdFloatDiv              0      0.00%     82.78% # Type of FU issued
system.cpu2.iq.FU_type_0::SimdFloatMisc             0      0.00%     82.78% # Type of FU issued
system.cpu2.iq.FU_type_0::SimdFloatMult             0      0.00%     82.78% # Type of FU issued
system.cpu2.iq.FU_type_0::SimdFloatMultAcc            0      0.00%     82.78% # Type of FU issued
system.cpu2.iq.FU_type_0::SimdFloatSqrt             0      0.00%     82.78% # Type of FU issued
system.cpu2.iq.FU_type_0::MemRead             3301438     10.13%     92.91% # Type of FU issued
system.cpu2.iq.FU_type_0::MemWrite            2024047      6.21%     99.12% # Type of FU issued
system.cpu2.iq.FU_type_0::IprAccess            287006      0.88%    100.00% # Type of FU issued
system.cpu2.iq.FU_type_0::InstPrefetch              0      0.00%    100.00% # Type of FU issued
system.cpu2.iq.FU_type_0::total              32598005                       # Type of FU issued
system.cpu2.iq.rate                          1.042168                       # Inst issue rate
system.cpu2.iq.fu_busy_cnt                     243426                       # FU busy when requested
system.cpu2.iq.fu_busy_rate                  0.007468                       # FU busy rate (busy events/executed inst)
system.cpu2.iq.int_inst_queue_reads          92623863                       # Number of integer instruction queue reads
system.cpu2.iq.int_inst_queue_writes         35700994                       # Number of integer instruction queue writes
system.cpu2.iq.int_inst_queue_wakeup_accesses     32205742                       # Number of integer instruction queue wakeup accesses
system.cpu2.iq.fp_inst_queue_reads             232756                       # Number of floating instruction queue reads
system.cpu2.iq.fp_inst_queue_writes            114085                       # Number of floating instruction queue writes
system.cpu2.iq.fp_inst_queue_wakeup_accesses       110215                       # Number of floating instruction queue wakeup accesses
system.cpu2.iq.int_alu_accesses              32717888                       # Number of integer alu accesses
system.cpu2.iq.fp_alu_accesses                 121103                       # Number of floating point alu accesses
system.cpu2.iew.lsq.thread0.forwLoads          185687                       # Number of loads that had data forwarded from stores
system.cpu2.iew.lsq.thread0.invAddrLoads            0                       # Number of loads ignored due to an invalid address
system.cpu2.iew.lsq.thread0.squashedLoads       410803                       # Number of loads squashed
system.cpu2.iew.lsq.thread0.ignoredResponses         1083                       # Number of memory responses ignored because the instruction is squashed
system.cpu2.iew.lsq.thread0.memOrderViolation         3827                       # Number of memory ordering violations
system.cpu2.iew.lsq.thread0.squashedStores       157383                       # Number of stores squashed
system.cpu2.iew.lsq.thread0.invAddrSwpfs            0                       # Number of software prefetches ignored due to an invalid address
system.cpu2.iew.lsq.thread0.blockedLoads            0                       # Number of blocked loads due to partial load-store forwarding
system.cpu2.iew.lsq.thread0.rescheduledLoads         4176                       # Number of loads that were rescheduled
system.cpu2.iew.lsq.thread0.cacheBlocked        27619                       # Number of times an access to memory failed due to the cache being blocked
system.cpu2.iew.iewIdleCycles                       0                       # Number of cycles IEW is idle
system.cpu2.iew.iewSquashCycles                381075                       # Number of cycles IEW is squashing
system.cpu2.iew.iewBlockCycles                2023183                       # Number of cycles IEW is blocking
system.cpu2.iew.iewUnblockCycles               204607                       # Number of cycles IEW is unblocking
system.cpu2.iew.iewDispatchedInsts           34934170                       # Number of instructions dispatched to IQ
system.cpu2.iew.iewDispSquashedInsts           220301                       # Number of squashed instructions skipped by dispatch
system.cpu2.iew.iewDispLoadInsts              3335757                       # Number of dispatched load instructions
system.cpu2.iew.iewDispStoreInsts             2091143                       # Number of dispatched store instructions
system.cpu2.iew.iewDispNonSpecInsts            547666                       # Number of dispatched non-speculative instructions
system.cpu2.iew.iewIQFullEvents                141469                       # Number of times the IQ has become full, causing a stall
system.cpu2.iew.iewLSQFullEvents                 2123                       # Number of times the LSQ has become full, causing a stall
system.cpu2.iew.memOrderViolationEvents          3827                       # Number of memory order violations
system.cpu2.iew.predictedTakenIncorrect         63090                       # Number of branches that were predicted taken incorrectly
system.cpu2.iew.predictedNotTakenIncorrect       127121                       # Number of branches that were predicted not taken incorrectly
system.cpu2.iew.branchMispredicts              190211                       # Number of branch mispredicts detected at execute
system.cpu2.iew.iewExecutedInsts             32442083                       # Number of executed instructions
system.cpu2.iew.iewExecLoadInsts              3195032                       # Number of load instructions executed
system.cpu2.iew.iewExecSquashedInsts           155922                       # Number of squashed instructions skipped in execute
system.cpu2.iew.exec_swp                            0                       # number of swp insts executed
system.cpu2.iew.exec_nop                      1266004                       # number of nop insts executed
system.cpu2.iew.exec_refs                     5203645                       # number of memory reference insts executed
system.cpu2.iew.exec_branches                 7597485                       # Number of branches executed
system.cpu2.iew.exec_stores                   2008613                       # Number of stores executed
system.cpu2.iew.exec_rate                    1.037183                       # Inst execution rate
system.cpu2.iew.wb_sent                      32348485                       # cumulative count of insts sent to commit
system.cpu2.iew.wb_count                     32315957                       # cumulative count of insts written-back
system.cpu2.iew.wb_producers                 18839799                       # num instructions producing a value
system.cpu2.iew.wb_consumers                 22025525                       # num instructions consuming a value
system.cpu2.iew.wb_penalized                        0                       # number of instrctions required to write to 'other' IQ
system.cpu2.iew.wb_rate                      1.033151                       # insts written-back per cycle
system.cpu2.iew.wb_fanout                    0.855362                       # average fanout of values written-back
system.cpu2.iew.wb_penalized_rate                   0                       # fraction of instructions written-back that wrote to 'other' IQ
system.cpu2.commit.commitSquashedInsts        2315429                       # The number of squashed insts skipped by commit
system.cpu2.commit.commitNonSpecStalls         181573                       # The number of times commit has been forced to stall to communicate backwards
system.cpu2.commit.branchMispredicts           175784                       # The number of times a branch was mispredicted
system.cpu2.commit.committed_per_cycle::samples     27001010                       # Number of insts commited each cycle
system.cpu2.commit.committed_per_cycle::mean     1.206363                       # Number of insts commited each cycle
system.cpu2.commit.committed_per_cycle::stdev     1.845727                       # Number of insts commited each cycle
system.cpu2.commit.committed_per_cycle::underflows            0      0.00%      0.00% # Number of insts commited each cycle
system.cpu2.commit.committed_per_cycle::0     16087817     59.58%     59.58% # Number of insts commited each cycle
system.cpu2.commit.committed_per_cycle::1      2320535      8.59%     68.18% # Number of insts commited each cycle
system.cpu2.commit.committed_per_cycle::2      1221811      4.53%     72.70% # Number of insts commited each cycle
system.cpu2.commit.committed_per_cycle::3      5612171     20.79%     93.49% # Number of insts commited each cycle
system.cpu2.commit.committed_per_cycle::4       500601      1.85%     95.34% # Number of insts commited each cycle
system.cpu2.commit.committed_per_cycle::5       184383      0.68%     96.02% # Number of insts commited each cycle
system.cpu2.commit.committed_per_cycle::6       174610      0.65%     96.67% # Number of insts commited each cycle
system.cpu2.commit.committed_per_cycle::7       192284      0.71%     97.38% # Number of insts commited each cycle
system.cpu2.commit.committed_per_cycle::8       706798      2.62%    100.00% # Number of insts commited each cycle
system.cpu2.commit.committed_per_cycle::overflows            0      0.00%    100.00% # Number of insts commited each cycle
system.cpu2.commit.committed_per_cycle::min_value            0                       # Number of insts commited each cycle
system.cpu2.commit.committed_per_cycle::max_value            8                       # Number of insts commited each cycle
system.cpu2.commit.committed_per_cycle::total     27001010                       # Number of insts commited each cycle
system.cpu2.commit.committedInsts            32573021                       # Number of instructions committed
system.cpu2.commit.committedOps              32573021                       # Number of ops (including micro ops) committed
system.cpu2.commit.swp_count                        0                       # Number of s/w prefetches committed
system.cpu2.commit.refs                       4858714                       # Number of memory references committed
system.cpu2.commit.loads                      2924954                       # Number of loads committed
system.cpu2.commit.membars                      63567                       # Number of memory barriers committed
system.cpu2.commit.branches                   7451291                       # Number of branches committed
system.cpu2.commit.fp_insts                    109021                       # Number of committed floating point instructions.
system.cpu2.commit.int_insts                 31134232                       # Number of committed integer instructions.
system.cpu2.commit.function_calls              227850                       # Number of function calls committed.
system.cpu2.commit.bw_lim_events               706798                       # number cycles where commit BW limit reached
system.cpu2.commit.bw_limited                       0                       # number of insts not committed due to BW limits
system.cpu2.rob.rob_reads                    61108801                       # The number of ROB reads
system.cpu2.rob.rob_writes                   70157468                       # The number of ROB writes
system.cpu2.timesIdled                         244589                       # Number of times that the entire CPU went into an idle state and unscheduled itself
system.cpu2.idleCycles                        3896937                       # Total number of cycles that the CPU has spent unscheduled due to idling
system.cpu2.quiesceCycles                  1746488839                       # Total number of cycles that CPU has spent quiesced or waiting for an interrupt
system.cpu2.committedInsts                   31413101                       # Number of Instructions Simulated
system.cpu2.committedOps                     31413101                       # Number of Ops (including micro ops) Simulated
system.cpu2.committedInsts_total             31413101                       # Number of Instructions Simulated
system.cpu2.cpi                              0.995732                       # CPI: Cycles Per Instruction
system.cpu2.cpi_total                        0.995732                       # CPI: Total CPI of All Threads
system.cpu2.ipc                              1.004287                       # IPC: Instructions Per Cycle
system.cpu2.ipc_total                        1.004287                       # IPC: Total IPC of All Threads
system.cpu2.int_regfile_reads                42678646                       # number of integer regfile reads
system.cpu2.int_regfile_writes               22701958                       # number of integer regfile writes
system.cpu2.fp_regfile_reads                    67399                       # number of floating regfile reads
system.cpu2.fp_regfile_writes                   67744                       # number of floating regfile writes
system.cpu2.misc_regfile_reads                5400058                       # number of misc regfile reads
system.cpu2.misc_regfile_writes                256035                       # number of misc regfile writes
system.cpu2.kern.inst.arm                           0                       # number of arm instructions executed
system.cpu2.kern.inst.quiesce                       0                       # number of quiesce instructions executed
system.cpu2.kern.inst.hwrei                         0                       # number of hwrei instructions executed
system.cpu2.kern.mode_switch::kernel                0                       # number of protection mode switches
system.cpu2.kern.mode_switch::user                  0                       # number of protection mode switches
system.cpu2.kern.mode_switch::idle                  0                       # number of protection mode switches
system.cpu2.kern.mode_good::kernel                  0                      
system.cpu2.kern.mode_good::user                    0                      
system.cpu2.kern.mode_good::idle                    0                      
system.cpu2.kern.mode_switch_good::kernel          nan                       # fraction of useful protection mode switches
system.cpu2.kern.mode_switch_good::user           nan                       # fraction of useful protection mode switches
system.cpu2.kern.mode_switch_good::idle           nan                       # fraction of useful protection mode switches
system.cpu2.kern.mode_switch_good::total          nan                       # fraction of useful protection mode switches
system.cpu2.kern.mode_ticks::kernel                 0                       # number of ticks spent at the given mode
system.cpu2.kern.mode_ticks::user                   0                       # number of ticks spent at the given mode
system.cpu2.kern.mode_ticks::idle                   0                       # number of ticks spent at the given mode
system.cpu2.kern.swap_context                       0                       # number of times the context was actually changed

---------- End Simulation Statistics   ----------
