gem5 Simulator System.  http://gem5.org
gem5 is copyrighted software; use the --copyright option for details.

gem5 compiled Jun  4 2012 12:14:06
gem5 started Jun  4 2012 18:34:04
gem5 executing on zizzer
command line: build/ARM/gem5.opt -d build/ARM/tests/opt/long/se/50.vortex/arm/linux/simple-atomic -re tests/run.py build/ARM/tests/opt/long/se/50.vortex/arm/linux/simple-atomic
Global frequency set at 1000000000000 ticks per second
info: Entering event queue @ 0.  Starting simulation...
info: Increasing stack size by one page.
Exiting @ tick 53932162000 because target called exit()
