gem5 Simulator System.  http://gem5.org
gem5 is copyrighted software; use the --copyright option for details.

gem5 compiled Feb 11 2012 13:05:17
gem5 started Feb 11 2012 13:11:11
gem5 executing on zizzer
command line: build/ALPHA/gem5.fast -d build/ALPHA/tests/fast/long/se/30.eon/alpha/tru64/simple-atomic -re tests/run.py build/ALPHA/tests/fast/long/se/30.eon/alpha/tru64/simple-atomic
Global frequency set at 1000000000000 ticks per second
info: Entering event queue @ 0.  Starting simulation...
info: Increasing stack size by one page.
Eon, Version 1.1
info: Increasing stack size by one page.
OO-style eon Time= 0.183333
Exiting @ tick 199332411500 because target called exit()
