
---------- Begin Simulation Statistics ----------
sim_seconds                                  0.019665                       # Number of seconds simulated
sim_ticks                                    19665440                       # Number of ticks simulated
final_tick                                   19665440                       # Number of ticks from beginning of simulation (restored from checkpoints and never reset)
sim_freq                                   1000000000                       # Frequency of simulated ticks
host_tick_rate                                 111694                       # Simulator tick rate (ticks/s)
host_mem_usage                                 379960                       # Number of bytes of host memory used
host_seconds                                   176.06                       # Real time elapsed on the host
system.l1_cntrl4.L1DcacheMemory.num_data_array_reads            0                       # number of data array reads
system.l1_cntrl4.L1DcacheMemory.num_data_array_writes            0                       # number of data array writes
system.l1_cntrl4.L1DcacheMemory.num_tag_array_reads            0                       # number of tag array reads
system.l1_cntrl4.L1DcacheMemory.num_tag_array_writes            0                       # number of tag array writes
system.l1_cntrl4.L1DcacheMemory.num_tag_array_stalls            0                       # number of stalls caused by tag array
system.l1_cntrl4.L1DcacheMemory.num_data_array_stalls            0                       # number of stalls caused by data array
system.l1_cntrl4.L1IcacheMemory.num_data_array_reads            0                       # number of data array reads
system.l1_cntrl4.L1IcacheMemory.num_data_array_writes            0                       # number of data array writes
system.l1_cntrl4.L1IcacheMemory.num_tag_array_reads            0                       # number of tag array reads
system.l1_cntrl4.L1IcacheMemory.num_tag_array_writes            0                       # number of tag array writes
system.l1_cntrl4.L1IcacheMemory.num_tag_array_stalls            0                       # number of stalls caused by tag array
system.l1_cntrl4.L1IcacheMemory.num_data_array_stalls            0                       # number of stalls caused by data array
system.l1_cntrl5.L1DcacheMemory.num_data_array_reads            0                       # number of data array reads
system.l1_cntrl5.L1DcacheMemory.num_data_array_writes            0                       # number of data array writes
system.l1_cntrl5.L1DcacheMemory.num_tag_array_reads            0                       # number of tag array reads
system.l1_cntrl5.L1DcacheMemory.num_tag_array_writes            0                       # number of tag array writes
system.l1_cntrl5.L1DcacheMemory.num_tag_array_stalls            0                       # number of stalls caused by tag array
system.l1_cntrl5.L1DcacheMemory.num_data_array_stalls            0                       # number of stalls caused by data array
system.l1_cntrl5.L1IcacheMemory.num_data_array_reads            0                       # number of data array reads
system.l1_cntrl5.L1IcacheMemory.num_data_array_writes            0                       # number of data array writes
system.l1_cntrl5.L1IcacheMemory.num_tag_array_reads            0                       # number of tag array reads
system.l1_cntrl5.L1IcacheMemory.num_tag_array_writes            0                       # number of tag array writes
system.l1_cntrl5.L1IcacheMemory.num_tag_array_stalls            0                       # number of stalls caused by tag array
system.l1_cntrl5.L1IcacheMemory.num_data_array_stalls            0                       # number of stalls caused by data array
system.l1_cntrl6.L1DcacheMemory.num_data_array_reads            0                       # number of data array reads
system.l1_cntrl6.L1DcacheMemory.num_data_array_writes            0                       # number of data array writes
system.l1_cntrl6.L1DcacheMemory.num_tag_array_reads            0                       # number of tag array reads
system.l1_cntrl6.L1DcacheMemory.num_tag_array_writes            0                       # number of tag array writes
system.l1_cntrl6.L1DcacheMemory.num_tag_array_stalls            0                       # number of stalls caused by tag array
system.l1_cntrl6.L1DcacheMemory.num_data_array_stalls            0                       # number of stalls caused by data array
system.l1_cntrl6.L1IcacheMemory.num_data_array_reads            0                       # number of data array reads
system.l1_cntrl6.L1IcacheMemory.num_data_array_writes            0                       # number of data array writes
system.l1_cntrl6.L1IcacheMemory.num_tag_array_reads            0                       # number of tag array reads
system.l1_cntrl6.L1IcacheMemory.num_tag_array_writes            0                       # number of tag array writes
system.l1_cntrl6.L1IcacheMemory.num_tag_array_stalls            0                       # number of stalls caused by tag array
system.l1_cntrl6.L1IcacheMemory.num_data_array_stalls            0                       # number of stalls caused by data array
system.l1_cntrl7.L1DcacheMemory.num_data_array_reads            0                       # number of data array reads
system.l1_cntrl7.L1DcacheMemory.num_data_array_writes            0                       # number of data array writes
system.l1_cntrl7.L1DcacheMemory.num_tag_array_reads            0                       # number of tag array reads
system.l1_cntrl7.L1DcacheMemory.num_tag_array_writes            0                       # number of tag array writes
system.l1_cntrl7.L1DcacheMemory.num_tag_array_stalls            0                       # number of stalls caused by tag array
system.l1_cntrl7.L1DcacheMemory.num_data_array_stalls            0                       # number of stalls caused by data array
system.l1_cntrl7.L1IcacheMemory.num_data_array_reads            0                       # number of data array reads
system.l1_cntrl7.L1IcacheMemory.num_data_array_writes            0                       # number of data array writes
system.l1_cntrl7.L1IcacheMemory.num_tag_array_reads            0                       # number of tag array reads
system.l1_cntrl7.L1IcacheMemory.num_tag_array_writes            0                       # number of tag array writes
system.l1_cntrl7.L1IcacheMemory.num_tag_array_stalls            0                       # number of stalls caused by tag array
system.l1_cntrl7.L1IcacheMemory.num_data_array_stalls            0                       # number of stalls caused by data array
system.l1_cntrl0.L1DcacheMemory.num_data_array_reads            0                       # number of data array reads
system.l1_cntrl0.L1DcacheMemory.num_data_array_writes            0                       # number of data array writes
system.l1_cntrl0.L1DcacheMemory.num_tag_array_reads            0                       # number of tag array reads
system.l1_cntrl0.L1DcacheMemory.num_tag_array_writes            0                       # number of tag array writes
system.l1_cntrl0.L1DcacheMemory.num_tag_array_stalls            0                       # number of stalls caused by tag array
system.l1_cntrl0.L1DcacheMemory.num_data_array_stalls            0                       # number of stalls caused by data array
system.l1_cntrl0.L1IcacheMemory.num_data_array_reads            0                       # number of data array reads
system.l1_cntrl0.L1IcacheMemory.num_data_array_writes            0                       # number of data array writes
system.l1_cntrl0.L1IcacheMemory.num_tag_array_reads            0                       # number of tag array reads
system.l1_cntrl0.L1IcacheMemory.num_tag_array_writes            0                       # number of tag array writes
system.l1_cntrl0.L1IcacheMemory.num_tag_array_stalls            0                       # number of stalls caused by tag array
system.l1_cntrl0.L1IcacheMemory.num_data_array_stalls            0                       # number of stalls caused by data array
system.l1_cntrl1.L1DcacheMemory.num_data_array_reads            0                       # number of data array reads
system.l1_cntrl1.L1DcacheMemory.num_data_array_writes            0                       # number of data array writes
system.l1_cntrl1.L1DcacheMemory.num_tag_array_reads            0                       # number of tag array reads
system.l1_cntrl1.L1DcacheMemory.num_tag_array_writes            0                       # number of tag array writes
system.l1_cntrl1.L1DcacheMemory.num_tag_array_stalls            0                       # number of stalls caused by tag array
system.l1_cntrl1.L1DcacheMemory.num_data_array_stalls            0                       # number of stalls caused by data array
system.l1_cntrl1.L1IcacheMemory.num_data_array_reads            0                       # number of data array reads
system.l1_cntrl1.L1IcacheMemory.num_data_array_writes            0                       # number of data array writes
system.l1_cntrl1.L1IcacheMemory.num_tag_array_reads            0                       # number of tag array reads
system.l1_cntrl1.L1IcacheMemory.num_tag_array_writes            0                       # number of tag array writes
system.l1_cntrl1.L1IcacheMemory.num_tag_array_stalls            0                       # number of stalls caused by tag array
system.l1_cntrl1.L1IcacheMemory.num_data_array_stalls            0                       # number of stalls caused by data array
system.l1_cntrl2.L1DcacheMemory.num_data_array_reads            0                       # number of data array reads
system.l1_cntrl2.L1DcacheMemory.num_data_array_writes            0                       # number of data array writes
system.l1_cntrl2.L1DcacheMemory.num_tag_array_reads            0                       # number of tag array reads
system.l1_cntrl2.L1DcacheMemory.num_tag_array_writes            0                       # number of tag array writes
system.l1_cntrl2.L1DcacheMemory.num_tag_array_stalls            0                       # number of stalls caused by tag array
system.l1_cntrl2.L1DcacheMemory.num_data_array_stalls            0                       # number of stalls caused by data array
system.l1_cntrl2.L1IcacheMemory.num_data_array_reads            0                       # number of data array reads
system.l1_cntrl2.L1IcacheMemory.num_data_array_writes            0                       # number of data array writes
system.l1_cntrl2.L1IcacheMemory.num_tag_array_reads            0                       # number of tag array reads
system.l1_cntrl2.L1IcacheMemory.num_tag_array_writes            0                       # number of tag array writes
system.l1_cntrl2.L1IcacheMemory.num_tag_array_stalls            0                       # number of stalls caused by tag array
system.l1_cntrl2.L1IcacheMemory.num_data_array_stalls            0                       # number of stalls caused by data array
system.l1_cntrl3.L1DcacheMemory.num_data_array_reads            0                       # number of data array reads
system.l1_cntrl3.L1DcacheMemory.num_data_array_writes            0                       # number of data array writes
system.l1_cntrl3.L1DcacheMemory.num_tag_array_reads            0                       # number of tag array reads
system.l1_cntrl3.L1DcacheMemory.num_tag_array_writes            0                       # number of tag array writes
system.l1_cntrl3.L1DcacheMemory.num_tag_array_stalls            0                       # number of stalls caused by tag array
system.l1_cntrl3.L1DcacheMemory.num_data_array_stalls            0                       # number of stalls caused by data array
system.l1_cntrl3.L1IcacheMemory.num_data_array_reads            0                       # number of data array reads
system.l1_cntrl3.L1IcacheMemory.num_data_array_writes            0                       # number of data array writes
system.l1_cntrl3.L1IcacheMemory.num_tag_array_reads            0                       # number of tag array reads
system.l1_cntrl3.L1IcacheMemory.num_tag_array_writes            0                       # number of tag array writes
system.l1_cntrl3.L1IcacheMemory.num_tag_array_stalls            0                       # number of stalls caused by tag array
system.l1_cntrl3.L1IcacheMemory.num_data_array_stalls            0                       # number of stalls caused by data array
system.l2_cntrl0.L2cacheMemory.num_data_array_reads            0                       # number of data array reads
system.l2_cntrl0.L2cacheMemory.num_data_array_writes            0                       # number of data array writes
system.l2_cntrl0.L2cacheMemory.num_tag_array_reads            0                       # number of tag array reads
system.l2_cntrl0.L2cacheMemory.num_tag_array_writes            0                       # number of tag array writes
system.l2_cntrl0.L2cacheMemory.num_tag_array_stalls            0                       # number of stalls caused by tag array
system.l2_cntrl0.L2cacheMemory.num_data_array_stalls            0                       # number of stalls caused by data array
system.cpu0.num_reads                           99534                       # number of read accesses completed
system.cpu0.num_writes                          53920                       # number of write accesses completed
system.cpu0.num_copies                              0                       # number of copy accesses completed
system.cpu1.num_reads                           99604                       # number of read accesses completed
system.cpu1.num_writes                          53779                       # number of write accesses completed
system.cpu1.num_copies                              0                       # number of copy accesses completed
system.cpu2.num_reads                           99103                       # number of read accesses completed
system.cpu2.num_writes                          53314                       # number of write accesses completed
system.cpu2.num_copies                              0                       # number of copy accesses completed
system.cpu3.num_reads                           99223                       # number of read accesses completed
system.cpu3.num_writes                          53188                       # number of write accesses completed
system.cpu3.num_copies                              0                       # number of copy accesses completed
system.cpu4.num_reads                          100000                       # number of read accesses completed
system.cpu4.num_writes                          53373                       # number of write accesses completed
system.cpu4.num_copies                              0                       # number of copy accesses completed
system.cpu5.num_reads                           99316                       # number of read accesses completed
system.cpu5.num_writes                          53693                       # number of write accesses completed
system.cpu5.num_copies                              0                       # number of copy accesses completed
system.cpu6.num_reads                           99832                       # number of read accesses completed
system.cpu6.num_writes                          53341                       # number of write accesses completed
system.cpu6.num_copies                              0                       # number of copy accesses completed
system.cpu7.num_reads                           99257                       # number of read accesses completed
system.cpu7.num_writes                          53656                       # number of write accesses completed
system.cpu7.num_copies                              0                       # number of copy accesses completed

---------- End Simulation Statistics   ----------
