
---------- Begin Simulation Statistics ----------
host_inst_rate                                 638506                       # Simulator instruction rate (inst/s)
host_mem_usage                                 150340                       # Number of bytes of host memory used
host_seconds                                   213.38                       # Real time elapsed on the host
host_tick_rate                                 638505                       # Simulator tick rate (ticks/s)
sim_freq                                 1000000000000                       # Frequency of simulated ticks
sim_insts                                   136246936                       # Number of instructions simulated
sim_seconds                                  0.000136                       # Number of seconds simulated
sim_ticks                                   136246935                       # Number of ticks simulated
system.cpu.idle_fraction                            0                       # Percentage of idle cycles
system.cpu.not_idle_fraction                        1                       # Percentage of non-idle cycles
system.cpu.numCycles                        136246936                       # number of cpu cycles simulated
system.cpu.num_insts                        136246936                       # Number of instructions executed
system.cpu.num_refs                          58111522                       # Number of memory references
system.cpu.workload.PROG:num_syscalls            1946                       # Number of system calls

---------- End Simulation Statistics   ----------
