
---------- Begin Simulation Statistics ----------
sim_seconds                                 51.318118                       # Number of seconds simulated
sim_ticks                                51318118168000                       # Number of ticks simulated
final_tick                               51318118168000                       # Number of ticks from beginning of simulation (restored from checkpoints and never reset)
sim_freq                                 1000000000000                       # Frequency of simulated ticks
host_inst_rate                                 134879                       # Simulator instruction rate (inst/s)
host_op_rate                                   158483                       # Simulator op (including micro ops) rate (op/s)
host_tick_rate                             7620199718                       # Simulator tick rate (ticks/s)
host_mem_usage                                 732720                       # Number of bytes of host memory used
host_seconds                                  6734.48                       # Real time elapsed on the host
sim_insts                                   908340493                       # Number of instructions simulated
sim_ops                                    1067303522                       # Number of ops (including micro ops) simulated
system.voltage_domain.voltage                       1                       # Voltage in Volts
system.clk_domain.clock                          1000                       # Clock period in ticks
system.physmem.bytes_read::cpu0.dtb.walker       160000                       # Number of bytes read from this memory
system.physmem.bytes_read::cpu0.itb.walker       146112                       # Number of bytes read from this memory
system.physmem.bytes_read::cpu0.inst          3855296                       # Number of bytes read from this memory
system.physmem.bytes_read::cpu0.data         28386264                       # Number of bytes read from this memory
system.physmem.bytes_read::cpu1.dtb.walker       162496                       # Number of bytes read from this memory
system.physmem.bytes_read::cpu1.itb.walker       145216                       # Number of bytes read from this memory
system.physmem.bytes_read::cpu1.inst          3634496                       # Number of bytes read from this memory
system.physmem.bytes_read::cpu1.data         27952240                       # Number of bytes read from this memory
system.physmem.bytes_read::realview.ide        430656                       # Number of bytes read from this memory
system.physmem.bytes_read::total             64872776                       # Number of bytes read from this memory
system.physmem.bytes_inst_read::cpu0.inst      3855296                       # Number of instructions bytes read from this memory
system.physmem.bytes_inst_read::cpu1.inst      3634496                       # Number of instructions bytes read from this memory
system.physmem.bytes_inst_read::total         7489792                       # Number of instructions bytes read from this memory
system.physmem.bytes_written::writebacks     83283200                       # Number of bytes written to this memory
system.physmem.bytes_written::cpu0.data         20580                       # Number of bytes written to this memory
system.physmem.bytes_written::total          83303780                       # Number of bytes written to this memory
system.physmem.num_reads::cpu0.dtb.walker         2500                       # Number of read requests responded to by this memory
system.physmem.num_reads::cpu0.itb.walker         2283                       # Number of read requests responded to by this memory
system.physmem.num_reads::cpu0.inst             60239                       # Number of read requests responded to by this memory
system.physmem.num_reads::cpu0.data            443543                       # Number of read requests responded to by this memory
system.physmem.num_reads::cpu1.dtb.walker         2539                       # Number of read requests responded to by this memory
system.physmem.num_reads::cpu1.itb.walker         2269                       # Number of read requests responded to by this memory
system.physmem.num_reads::cpu1.inst             56789                       # Number of read requests responded to by this memory
system.physmem.num_reads::cpu1.data            436759                       # Number of read requests responded to by this memory
system.physmem.num_reads::realview.ide           6729                       # Number of read requests responded to by this memory
system.physmem.num_reads::total               1013650                       # Number of read requests responded to by this memory
system.physmem.num_writes::writebacks         1301300                       # Number of write requests responded to by this memory
system.physmem.num_writes::cpu0.data             2573                       # Number of write requests responded to by this memory
system.physmem.num_writes::total              1303873                       # Number of write requests responded to by this memory
system.physmem.bw_read::cpu0.dtb.walker          3118                       # Total read bandwidth from this memory (bytes/s)
system.physmem.bw_read::cpu0.itb.walker          2847                       # Total read bandwidth from this memory (bytes/s)
system.physmem.bw_read::cpu0.inst               75125                       # Total read bandwidth from this memory (bytes/s)
system.physmem.bw_read::cpu0.data              553143                       # Total read bandwidth from this memory (bytes/s)
system.physmem.bw_read::cpu1.dtb.walker          3166                       # Total read bandwidth from this memory (bytes/s)
system.physmem.bw_read::cpu1.itb.walker          2830                       # Total read bandwidth from this memory (bytes/s)
system.physmem.bw_read::cpu1.inst               70823                       # Total read bandwidth from this memory (bytes/s)
system.physmem.bw_read::cpu1.data              544686                       # Total read bandwidth from this memory (bytes/s)
system.physmem.bw_read::realview.ide             8392                       # Total read bandwidth from this memory (bytes/s)
system.physmem.bw_read::total                 1264130                       # Total read bandwidth from this memory (bytes/s)
system.physmem.bw_inst_read::cpu0.inst          75125                       # Instruction read bandwidth from this memory (bytes/s)
system.physmem.bw_inst_read::cpu1.inst          70823                       # Instruction read bandwidth from this memory (bytes/s)
system.physmem.bw_inst_read::total             145948                       # Instruction read bandwidth from this memory (bytes/s)
system.physmem.bw_write::writebacks           1622881                       # Write bandwidth from this memory (bytes/s)
system.physmem.bw_write::cpu0.data                401                       # Write bandwidth from this memory (bytes/s)
system.physmem.bw_write::total                1623282                       # Write bandwidth from this memory (bytes/s)
system.physmem.bw_total::writebacks           1622881                       # Total bandwidth to/from this memory (bytes/s)
system.physmem.bw_total::cpu0.dtb.walker         3118                       # Total bandwidth to/from this memory (bytes/s)
system.physmem.bw_total::cpu0.itb.walker         2847                       # Total bandwidth to/from this memory (bytes/s)
system.physmem.bw_total::cpu0.inst              75125                       # Total bandwidth to/from this memory (bytes/s)
system.physmem.bw_total::cpu0.data             553544                       # Total bandwidth to/from this memory (bytes/s)
system.physmem.bw_total::cpu1.dtb.walker         3166                       # Total bandwidth to/from this memory (bytes/s)
system.physmem.bw_total::cpu1.itb.walker         2830                       # Total bandwidth to/from this memory (bytes/s)
system.physmem.bw_total::cpu1.inst              70823                       # Total bandwidth to/from this memory (bytes/s)
system.physmem.bw_total::cpu1.data             544686                       # Total bandwidth to/from this memory (bytes/s)
system.physmem.bw_total::realview.ide            8392                       # Total bandwidth to/from this memory (bytes/s)
system.physmem.bw_total::total                2887412                       # Total bandwidth to/from this memory (bytes/s)
system.physmem.readReqs                       1013650                       # Number of read requests accepted
system.physmem.writeReqs                      1930075                       # Number of write requests accepted
system.physmem.readBursts                     1013650                       # Number of DRAM read bursts, including those serviced by the write queue
system.physmem.writeBursts                    1930075                       # Number of DRAM write bursts, including those merged in the write queue
system.physmem.bytesReadDRAM                 64838144                       # Total number of bytes read from DRAM
system.physmem.bytesReadWrQ                     35456                       # Total number of bytes read from write queue
system.physmem.bytesWritten                 120356480                       # Total number of bytes written to DRAM
system.physmem.bytesReadSys                  64872776                       # Total read bytes from the system interface side
system.physmem.bytesWrittenSys              123380708                       # Total written bytes from the system interface side
system.physmem.servicedByWrQ                      554                       # Number of DRAM read bursts serviced by the write queue
system.physmem.mergedWrBursts                   49498                       # Number of DRAM write bursts merged with an existing one
system.physmem.neitherReadNorWriteReqs          37388                       # Number of requests that are neither read nor write
system.physmem.perBankRdBursts::0               61871                       # Per bank write bursts
system.physmem.perBankRdBursts::1               62981                       # Per bank write bursts
system.physmem.perBankRdBursts::2               60043                       # Per bank write bursts
system.physmem.perBankRdBursts::3               58309                       # Per bank write bursts
system.physmem.perBankRdBursts::4               58023                       # Per bank write bursts
system.physmem.perBankRdBursts::5               70636                       # Per bank write bursts
system.physmem.perBankRdBursts::6               62371                       # Per bank write bursts
system.physmem.perBankRdBursts::7               61877                       # Per bank write bursts
system.physmem.perBankRdBursts::8               57508                       # Per bank write bursts
system.physmem.perBankRdBursts::9               84884                       # Per bank write bursts
system.physmem.perBankRdBursts::10              63101                       # Per bank write bursts
system.physmem.perBankRdBursts::11              65471                       # Per bank write bursts
system.physmem.perBankRdBursts::12              60660                       # Per bank write bursts
system.physmem.perBankRdBursts::13              66399                       # Per bank write bursts
system.physmem.perBankRdBursts::14              58532                       # Per bank write bursts
system.physmem.perBankRdBursts::15              60430                       # Per bank write bursts
system.physmem.perBankWrBursts::0              115217                       # Per bank write bursts
system.physmem.perBankWrBursts::1              115969                       # Per bank write bursts
system.physmem.perBankWrBursts::2              118272                       # Per bank write bursts
system.physmem.perBankWrBursts::3              117255                       # Per bank write bursts
system.physmem.perBankWrBursts::4              115771                       # Per bank write bursts
system.physmem.perBankWrBursts::5              124355                       # Per bank write bursts
system.physmem.perBankWrBursts::6              120059                       # Per bank write bursts
system.physmem.perBankWrBursts::7              119259                       # Per bank write bursts
system.physmem.perBankWrBursts::8              113485                       # Per bank write bursts
system.physmem.perBankWrBursts::9              118397                       # Per bank write bursts
system.physmem.perBankWrBursts::10             117107                       # Per bank write bursts
system.physmem.perBankWrBursts::11             118510                       # Per bank write bursts
system.physmem.perBankWrBursts::12             116303                       # Per bank write bursts
system.physmem.perBankWrBursts::13             122603                       # Per bank write bursts
system.physmem.perBankWrBursts::14             113656                       # Per bank write bursts
system.physmem.perBankWrBursts::15             114352                       # Per bank write bursts
system.physmem.numRdRetry                           0                       # Number of times read queue was full causing retry
system.physmem.numWrRetry                         644                       # Number of times write queue was full causing retry
system.physmem.totGap                    51318117066500                       # Total gap between requests
system.physmem.readPktSize::0                       0                       # Read request sizes (log2)
system.physmem.readPktSize::1                       0                       # Read request sizes (log2)
system.physmem.readPktSize::2                       0                       # Read request sizes (log2)
system.physmem.readPktSize::3                      13                       # Read request sizes (log2)
system.physmem.readPktSize::4                       2                       # Read request sizes (log2)
system.physmem.readPktSize::5                       0                       # Read request sizes (log2)
system.physmem.readPktSize::6                 1013635                       # Read request sizes (log2)
system.physmem.writePktSize::0                      0                       # Write request sizes (log2)
system.physmem.writePktSize::1                      0                       # Write request sizes (log2)
system.physmem.writePktSize::2                      1                       # Write request sizes (log2)
system.physmem.writePktSize::3                   2572                       # Write request sizes (log2)
system.physmem.writePktSize::4                      0                       # Write request sizes (log2)
system.physmem.writePktSize::5                      0                       # Write request sizes (log2)
system.physmem.writePktSize::6                1927502                       # Write request sizes (log2)
system.physmem.rdQLenPdf::0                    564185                       # What read queue length does an incoming req see
system.physmem.rdQLenPdf::1                    294633                       # What read queue length does an incoming req see
system.physmem.rdQLenPdf::2                    102008                       # What read queue length does an incoming req see
system.physmem.rdQLenPdf::3                     45915                       # What read queue length does an incoming req see
system.physmem.rdQLenPdf::4                       724                       # What read queue length does an incoming req see
system.physmem.rdQLenPdf::5                       557                       # What read queue length does an incoming req see
system.physmem.rdQLenPdf::6                       502                       # What read queue length does an incoming req see
system.physmem.rdQLenPdf::7                       740                       # What read queue length does an incoming req see
system.physmem.rdQLenPdf::8                       491                       # What read queue length does an incoming req see
system.physmem.rdQLenPdf::9                      1923                       # What read queue length does an incoming req see
system.physmem.rdQLenPdf::10                      318                       # What read queue length does an incoming req see
system.physmem.rdQLenPdf::11                      174                       # What read queue length does an incoming req see
system.physmem.rdQLenPdf::12                      159                       # What read queue length does an incoming req see
system.physmem.rdQLenPdf::13                      126                       # What read queue length does an incoming req see
system.physmem.rdQLenPdf::14                      122                       # What read queue length does an incoming req see
system.physmem.rdQLenPdf::15                      115                       # What read queue length does an incoming req see
system.physmem.rdQLenPdf::16                      113                       # What read queue length does an incoming req see
system.physmem.rdQLenPdf::17                      106                       # What read queue length does an incoming req see
system.physmem.rdQLenPdf::18                       92                       # What read queue length does an incoming req see
system.physmem.rdQLenPdf::19                       72                       # What read queue length does an incoming req see
system.physmem.rdQLenPdf::20                       14                       # What read queue length does an incoming req see
system.physmem.rdQLenPdf::21                        4                       # What read queue length does an incoming req see
system.physmem.rdQLenPdf::22                        2                       # What read queue length does an incoming req see
system.physmem.rdQLenPdf::23                        1                       # What read queue length does an incoming req see
system.physmem.rdQLenPdf::24                        0                       # What read queue length does an incoming req see
system.physmem.rdQLenPdf::25                        0                       # What read queue length does an incoming req see
system.physmem.rdQLenPdf::26                        0                       # What read queue length does an incoming req see
system.physmem.rdQLenPdf::27                        0                       # What read queue length does an incoming req see
system.physmem.rdQLenPdf::28                        0                       # What read queue length does an incoming req see
system.physmem.rdQLenPdf::29                        0                       # What read queue length does an incoming req see
system.physmem.rdQLenPdf::30                        0                       # What read queue length does an incoming req see
system.physmem.rdQLenPdf::31                        0                       # What read queue length does an incoming req see
system.physmem.wrQLenPdf::0                       796                       # What write queue length does an incoming req see
system.physmem.wrQLenPdf::1                       743                       # What write queue length does an incoming req see
system.physmem.wrQLenPdf::2                       738                       # What write queue length does an incoming req see
system.physmem.wrQLenPdf::3                       733                       # What write queue length does an incoming req see
system.physmem.wrQLenPdf::4                       730                       # What write queue length does an incoming req see
system.physmem.wrQLenPdf::5                       727                       # What write queue length does an incoming req see
system.physmem.wrQLenPdf::6                       732                       # What write queue length does an incoming req see
system.physmem.wrQLenPdf::7                       725                       # What write queue length does an incoming req see
system.physmem.wrQLenPdf::8                       729                       # What write queue length does an incoming req see
system.physmem.wrQLenPdf::9                       731                       # What write queue length does an incoming req see
system.physmem.wrQLenPdf::10                      721                       # What write queue length does an incoming req see
system.physmem.wrQLenPdf::11                      734                       # What write queue length does an incoming req see
system.physmem.wrQLenPdf::12                      718                       # What write queue length does an incoming req see
system.physmem.wrQLenPdf::13                      732                       # What write queue length does an incoming req see
system.physmem.wrQLenPdf::14                      725                       # What write queue length does an incoming req see
system.physmem.wrQLenPdf::15                    29010                       # What write queue length does an incoming req see
system.physmem.wrQLenPdf::16                    66066                       # What write queue length does an incoming req see
system.physmem.wrQLenPdf::17                    62259                       # What write queue length does an incoming req see
system.physmem.wrQLenPdf::18                    89013                       # What write queue length does an incoming req see
system.physmem.wrQLenPdf::19                    88926                       # What write queue length does an incoming req see
system.physmem.wrQLenPdf::20                   107579                       # What write queue length does an incoming req see
system.physmem.wrQLenPdf::21                   106733                       # What write queue length does an incoming req see
system.physmem.wrQLenPdf::22                   116711                       # What write queue length does an incoming req see
system.physmem.wrQLenPdf::23                   108023                       # What write queue length does an incoming req see
system.physmem.wrQLenPdf::24                   122723                       # What write queue length does an incoming req see
system.physmem.wrQLenPdf::25                   101978                       # What write queue length does an incoming req see
system.physmem.wrQLenPdf::26                   129145                       # What write queue length does an incoming req see
system.physmem.wrQLenPdf::27                   103612                       # What write queue length does an incoming req see
system.physmem.wrQLenPdf::28                    95256                       # What write queue length does an incoming req see
system.physmem.wrQLenPdf::29                   108517                       # What write queue length does an incoming req see
system.physmem.wrQLenPdf::30                    90319                       # What write queue length does an incoming req see
system.physmem.wrQLenPdf::31                    86324                       # What write queue length does an incoming req see
system.physmem.wrQLenPdf::32                    81769                       # What write queue length does an incoming req see
system.physmem.wrQLenPdf::33                     9575                       # What write queue length does an incoming req see
system.physmem.wrQLenPdf::34                     8389                       # What write queue length does an incoming req see
system.physmem.wrQLenPdf::35                     8185                       # What write queue length does an incoming req see
system.physmem.wrQLenPdf::36                     9213                       # What write queue length does an incoming req see
system.physmem.wrQLenPdf::37                     9986                       # What write queue length does an incoming req see
system.physmem.wrQLenPdf::38                     8806                       # What write queue length does an incoming req see
system.physmem.wrQLenPdf::39                     9359                       # What write queue length does an incoming req see
system.physmem.wrQLenPdf::40                     9979                       # What write queue length does an incoming req see
system.physmem.wrQLenPdf::41                     8573                       # What write queue length does an incoming req see
system.physmem.wrQLenPdf::42                     8083                       # What write queue length does an incoming req see
system.physmem.wrQLenPdf::43                     7257                       # What write queue length does an incoming req see
system.physmem.wrQLenPdf::44                     7806                       # What write queue length does an incoming req see
system.physmem.wrQLenPdf::45                     7695                       # What write queue length does an incoming req see
system.physmem.wrQLenPdf::46                     6239                       # What write queue length does an incoming req see
system.physmem.wrQLenPdf::47                     6318                       # What write queue length does an incoming req see
system.physmem.wrQLenPdf::48                     5151                       # What write queue length does an incoming req see
system.physmem.wrQLenPdf::49                     4640                       # What write queue length does an incoming req see
system.physmem.wrQLenPdf::50                     3932                       # What write queue length does an incoming req see
system.physmem.wrQLenPdf::51                     3740                       # What write queue length does an incoming req see
system.physmem.wrQLenPdf::52                     3115                       # What write queue length does an incoming req see
system.physmem.wrQLenPdf::53                     3218                       # What write queue length does an incoming req see
system.physmem.wrQLenPdf::54                     2806                       # What write queue length does an incoming req see
system.physmem.wrQLenPdf::55                     3055                       # What write queue length does an incoming req see
system.physmem.wrQLenPdf::56                     2506                       # What write queue length does an incoming req see
system.physmem.wrQLenPdf::57                     3036                       # What write queue length does an incoming req see
system.physmem.wrQLenPdf::58                     2297                       # What write queue length does an incoming req see
system.physmem.wrQLenPdf::59                     2830                       # What write queue length does an incoming req see
system.physmem.wrQLenPdf::60                     2028                       # What write queue length does an incoming req see
system.physmem.wrQLenPdf::61                     4689                       # What write queue length does an incoming req see
system.physmem.wrQLenPdf::62                      976                       # What write queue length does an incoming req see
system.physmem.wrQLenPdf::63                     2118                       # What write queue length does an incoming req see
system.physmem.bytesPerActivate::samples       627585                       # Bytes accessed per row activation
system.physmem.bytesPerActivate::mean      295.090291                       # Bytes accessed per row activation
system.physmem.bytesPerActivate::gmean     168.534210                       # Bytes accessed per row activation
system.physmem.bytesPerActivate::stdev     332.652886                       # Bytes accessed per row activation
system.physmem.bytesPerActivate::0-127         259317     41.32%     41.32% # Bytes accessed per row activation
system.physmem.bytesPerActivate::128-255       149298     23.79%     65.11% # Bytes accessed per row activation
system.physmem.bytesPerActivate::256-383        56496      9.00%     74.11% # Bytes accessed per row activation
system.physmem.bytesPerActivate::384-511        28437      4.53%     78.64% # Bytes accessed per row activation
system.physmem.bytesPerActivate::512-639        21665      3.45%     82.09% # Bytes accessed per row activation
system.physmem.bytesPerActivate::640-767        12676      2.02%     84.11% # Bytes accessed per row activation
system.physmem.bytesPerActivate::768-895        11310      1.80%     85.92% # Bytes accessed per row activation
system.physmem.bytesPerActivate::896-1023         8646      1.38%     87.29% # Bytes accessed per row activation
system.physmem.bytesPerActivate::1024-1151        79740     12.71%    100.00% # Bytes accessed per row activation
system.physmem.bytesPerActivate::total         627585                       # Bytes accessed per row activation
system.physmem.rdPerTurnAround::samples         69573                       # Reads before turning the bus around for writes
system.physmem.rdPerTurnAround::mean        14.561338                       # Reads before turning the bus around for writes
system.physmem.rdPerTurnAround::stdev       62.076495                       # Reads before turning the bus around for writes
system.physmem.rdPerTurnAround::0-511           69566     99.99%     99.99% # Reads before turning the bus around for writes
system.physmem.rdPerTurnAround::512-1023            3      0.00%     99.99% # Reads before turning the bus around for writes
system.physmem.rdPerTurnAround::1024-1535            1      0.00%    100.00% # Reads before turning the bus around for writes
system.physmem.rdPerTurnAround::1536-2047            1      0.00%    100.00% # Reads before turning the bus around for writes
system.physmem.rdPerTurnAround::10240-10751            1      0.00%    100.00% # Reads before turning the bus around for writes
system.physmem.rdPerTurnAround::11776-12287            1      0.00%    100.00% # Reads before turning the bus around for writes
system.physmem.rdPerTurnAround::total           69573                       # Reads before turning the bus around for writes
system.physmem.wrPerTurnAround::samples         69573                       # Writes before turning the bus around for reads
system.physmem.wrPerTurnAround::mean        27.030170                       # Writes before turning the bus around for reads
system.physmem.wrPerTurnAround::gmean       20.998159                       # Writes before turning the bus around for reads
system.physmem.wrPerTurnAround::stdev       37.100716                       # Writes before turning the bus around for reads
system.physmem.wrPerTurnAround::0-31            59064     84.90%     84.90% # Writes before turning the bus around for reads
system.physmem.wrPerTurnAround::32-63            4267      6.13%     91.03% # Writes before turning the bus around for reads
system.physmem.wrPerTurnAround::64-95            4153      5.97%     97.00% # Writes before turning the bus around for reads
system.physmem.wrPerTurnAround::96-127            990      1.42%     98.42% # Writes before turning the bus around for reads
system.physmem.wrPerTurnAround::128-159           298      0.43%     98.85% # Writes before turning the bus around for reads
system.physmem.wrPerTurnAround::160-191           151      0.22%     99.07% # Writes before turning the bus around for reads
system.physmem.wrPerTurnAround::192-223            89      0.13%     99.19% # Writes before turning the bus around for reads
system.physmem.wrPerTurnAround::224-255            92      0.13%     99.33% # Writes before turning the bus around for reads
system.physmem.wrPerTurnAround::256-287           109      0.16%     99.48% # Writes before turning the bus around for reads
system.physmem.wrPerTurnAround::288-319           106      0.15%     99.63% # Writes before turning the bus around for reads
system.physmem.wrPerTurnAround::320-351            80      0.11%     99.75% # Writes before turning the bus around for reads
system.physmem.wrPerTurnAround::352-383            57      0.08%     99.83% # Writes before turning the bus around for reads
system.physmem.wrPerTurnAround::384-415            25      0.04%     99.87% # Writes before turning the bus around for reads
system.physmem.wrPerTurnAround::416-447            19      0.03%     99.90% # Writes before turning the bus around for reads
system.physmem.wrPerTurnAround::448-479            14      0.02%     99.92% # Writes before turning the bus around for reads
system.physmem.wrPerTurnAround::480-511            19      0.03%     99.94% # Writes before turning the bus around for reads
system.physmem.wrPerTurnAround::512-543            11      0.02%     99.96% # Writes before turning the bus around for reads
system.physmem.wrPerTurnAround::544-575             5      0.01%     99.97% # Writes before turning the bus around for reads
system.physmem.wrPerTurnAround::576-607             3      0.00%     99.97% # Writes before turning the bus around for reads
system.physmem.wrPerTurnAround::608-639             3      0.00%     99.97% # Writes before turning the bus around for reads
system.physmem.wrPerTurnAround::640-671             5      0.01%     99.98% # Writes before turning the bus around for reads
system.physmem.wrPerTurnAround::672-703             6      0.01%     99.99% # Writes before turning the bus around for reads
system.physmem.wrPerTurnAround::736-767             2      0.00%     99.99% # Writes before turning the bus around for reads
system.physmem.wrPerTurnAround::768-799             2      0.00%    100.00% # Writes before turning the bus around for reads
system.physmem.wrPerTurnAround::960-991             1      0.00%    100.00% # Writes before turning the bus around for reads
system.physmem.wrPerTurnAround::1152-1183            1      0.00%    100.00% # Writes before turning the bus around for reads
system.physmem.wrPerTurnAround::1600-1631            1      0.00%    100.00% # Writes before turning the bus around for reads
system.physmem.wrPerTurnAround::total           69573                       # Writes before turning the bus around for reads
system.physmem.totQLat                    27603415095                       # Total ticks spent queuing
system.physmem.totMemAccLat               46598965095                       # Total ticks spent from burst creation until serviced by the DRAM
system.physmem.totBusLat                   5065480000                       # Total ticks spent in databus transfers
system.physmem.avgQLat                       27246.59                       # Average queueing delay per DRAM burst
system.physmem.avgBusLat                      5000.00                       # Average bus latency per DRAM burst
system.physmem.avgMemAccLat                  45996.59                       # Average memory access latency per DRAM burst
system.physmem.avgRdBW                           1.26                       # Average DRAM read bandwidth in MiByte/s
system.physmem.avgWrBW                           2.35                       # Average achieved write bandwidth in MiByte/s
system.physmem.avgRdBWSys                        1.26                       # Average system read bandwidth in MiByte/s
system.physmem.avgWrBWSys                        2.40                       # Average system write bandwidth in MiByte/s
system.physmem.peakBW                        12800.00                       # Theoretical peak bandwidth in MiByte/s
system.physmem.busUtil                           0.03                       # Data bus utilization in percentage
system.physmem.busUtilRead                       0.01                       # Data bus utilization in percentage for reads
system.physmem.busUtilWrite                      0.02                       # Data bus utilization in percentage for writes
system.physmem.avgRdQLen                         1.16                       # Average read queue length when enqueuing
system.physmem.avgWrQLen                         8.19                       # Average write queue length when enqueuing
system.physmem.readRowHits                     781690                       # Number of row buffer hits during reads
system.physmem.writeRowHits                   1484389                       # Number of row buffer hits during writes
system.physmem.readRowHitRate                   77.16                       # Row buffer hit rate for reads
system.physmem.writeRowHitRate                  78.93                       # Row buffer hit rate for writes
system.physmem.avgGap                     17433054.06                       # Average gap between requests
system.physmem.pageHitRate                      78.31                       # Row buffer hit rate, read and write combined
system.physmem_0.actEnergy                 2390683680                       # Energy for activate commands per rank (pJ)
system.physmem_0.preEnergy                 1304440500                       # Energy for precharge commands per rank (pJ)
system.physmem_0.readEnergy                3869626800                       # Energy for read commands per rank (pJ)
system.physmem_0.writeEnergy               6131097360                       # Energy for write commands per rank (pJ)
system.physmem_0.refreshEnergy           3351849795840                       # Energy for refresh commands per rank (pJ)
system.physmem_0.actBackEnergy           1233875646405                       # Energy for active background per rank (pJ)
system.physmem_0.preBackEnergy           29708521981500                       # Energy for precharge background per rank (pJ)
system.physmem_0.totalEnergy             34307943272085                       # Total energy per rank (pJ)
system.physmem_0.averagePower              668.534751                       # Core power per rank (mW)
system.physmem_0.memoryStateTime::IDLE   49422598441359                       # Time in different power states
system.physmem_0.memoryStateTime::REF    1713624640000                       # Time in different power states
system.physmem_0.memoryStateTime::PRE_PDN            0                       # Time in different power states
system.physmem_0.memoryStateTime::ACT    181894714141                       # Time in different power states
system.physmem_0.memoryStateTime::ACT_PDN            0                       # Time in different power states
system.physmem_1.actEnergy                 2353858920                       # Energy for activate commands per rank (pJ)
system.physmem_1.preEnergy                 1284347625                       # Energy for precharge commands per rank (pJ)
system.physmem_1.readEnergy                4032475200                       # Energy for read commands per rank (pJ)
system.physmem_1.writeEnergy               6054996240                       # Energy for write commands per rank (pJ)
system.physmem_1.refreshEnergy           3351849795840                       # Energy for refresh commands per rank (pJ)
system.physmem_1.actBackEnergy           1235994503985                       # Energy for active background per rank (pJ)
system.physmem_1.preBackEnergy           29706663342750                       # Energy for precharge background per rank (pJ)
system.physmem_1.totalEnergy             34308233320560                       # Total energy per rank (pJ)
system.physmem_1.averagePower              668.540403                       # Core power per rank (mW)
system.physmem_1.memoryStateTime::IDLE   49419482573169                       # Time in different power states
system.physmem_1.memoryStateTime::REF    1713624640000                       # Time in different power states
system.physmem_1.memoryStateTime::PRE_PDN            0                       # Time in different power states
system.physmem_1.memoryStateTime::ACT    185010821331                       # Time in different power states
system.physmem_1.memoryStateTime::ACT_PDN            0                       # Time in different power states
system.realview.nvmem.bytes_read::cpu0.inst          768                       # Number of bytes read from this memory
system.realview.nvmem.bytes_read::cpu0.data           36                       # Number of bytes read from this memory
system.realview.nvmem.bytes_read::cpu1.inst         1408                       # Number of bytes read from this memory
system.realview.nvmem.bytes_read::total          2212                       # Number of bytes read from this memory
system.realview.nvmem.bytes_inst_read::cpu0.inst          768                       # Number of instructions bytes read from this memory
system.realview.nvmem.bytes_inst_read::cpu1.inst         1408                       # Number of instructions bytes read from this memory
system.realview.nvmem.bytes_inst_read::total         2176                       # Number of instructions bytes read from this memory
system.realview.nvmem.num_reads::cpu0.inst           12                       # Number of read requests responded to by this memory
system.realview.nvmem.num_reads::cpu0.data            5                       # Number of read requests responded to by this memory
system.realview.nvmem.num_reads::cpu1.inst           22                       # Number of read requests responded to by this memory
system.realview.nvmem.num_reads::total             39                       # Number of read requests responded to by this memory
system.realview.nvmem.bw_read::cpu0.inst           15                       # Total read bandwidth from this memory (bytes/s)
system.realview.nvmem.bw_read::cpu0.data            1                       # Total read bandwidth from this memory (bytes/s)
system.realview.nvmem.bw_read::cpu1.inst           27                       # Total read bandwidth from this memory (bytes/s)
system.realview.nvmem.bw_read::total               43                       # Total read bandwidth from this memory (bytes/s)
system.realview.nvmem.bw_inst_read::cpu0.inst           15                       # Instruction read bandwidth from this memory (bytes/s)
system.realview.nvmem.bw_inst_read::cpu1.inst           27                       # Instruction read bandwidth from this memory (bytes/s)
system.realview.nvmem.bw_inst_read::total           42                       # Instruction read bandwidth from this memory (bytes/s)
system.realview.nvmem.bw_total::cpu0.inst           15                       # Total bandwidth to/from this memory (bytes/s)
system.realview.nvmem.bw_total::cpu0.data            1                       # Total bandwidth to/from this memory (bytes/s)
system.realview.nvmem.bw_total::cpu1.inst           27                       # Total bandwidth to/from this memory (bytes/s)
system.realview.nvmem.bw_total::total              43                       # Total bandwidth to/from this memory (bytes/s)
system.cf0.dma_read_full_pages                    122                       # Number of full page size DMA reads (not PRD).
system.cf0.dma_read_bytes                      499712                       # Number of bytes transfered via DMA reads (not PRD).
system.cf0.dma_read_txs                           122                       # Number of DMA read transactions (not PRD).
system.cf0.dma_write_full_pages                  1666                       # Number of full page size DMA writes.
system.cf0.dma_write_bytes                    6826496                       # Number of bytes transfered via DMA writes.
system.cf0.dma_write_txs                         1669                       # Number of DMA write transactions.
system.cpu0.branchPred.lookups              133240776                       # Number of BP lookups
system.cpu0.branchPred.condPredicted         90773806                       # Number of conditional branches predicted
system.cpu0.branchPred.condIncorrect          5898398                       # Number of conditional branches incorrect
system.cpu0.branchPred.BTBLookups            90806413                       # Number of BTB lookups
system.cpu0.branchPred.BTBHits               65300191                       # Number of BTB hits
system.cpu0.branchPred.BTBCorrect                   0                       # Number of correct BTB predictions (this stat may not work properly.
system.cpu0.branchPred.BTBHitPct            71.911431                       # BTB Hit Percentage
system.cpu0.branchPred.usedRAS               17271308                       # Number of times the RAS was used to get a target.
system.cpu0.branchPred.RASInCorrect            187435                       # Number of incorrect RAS predictions.
system.cpu_clk_domain.clock                       500                       # Clock period in ticks
system.cpu0.dstage2_mmu.stage2_tlb.walker.walks            0                       # Table walker walks requested
system.cpu0.dstage2_mmu.stage2_tlb.walker.walkRequestOrigin_Requested::Data            0                       # Table walker requests started/completed, data/inst
system.cpu0.dstage2_mmu.stage2_tlb.walker.walkRequestOrigin_Requested::Inst            0                       # Table walker requests started/completed, data/inst
system.cpu0.dstage2_mmu.stage2_tlb.walker.walkRequestOrigin_Requested::total            0                       # Table walker requests started/completed, data/inst
system.cpu0.dstage2_mmu.stage2_tlb.walker.walkRequestOrigin_Completed::Data            0                       # Table walker requests started/completed, data/inst
system.cpu0.dstage2_mmu.stage2_tlb.walker.walkRequestOrigin_Completed::Inst            0                       # Table walker requests started/completed, data/inst
system.cpu0.dstage2_mmu.stage2_tlb.walker.walkRequestOrigin_Completed::total            0                       # Table walker requests started/completed, data/inst
system.cpu0.dstage2_mmu.stage2_tlb.walker.walkRequestOrigin::total            0                       # Table walker requests started/completed, data/inst
system.cpu0.dstage2_mmu.stage2_tlb.inst_hits            0                       # ITB inst hits
system.cpu0.dstage2_mmu.stage2_tlb.inst_misses            0                       # ITB inst misses
system.cpu0.dstage2_mmu.stage2_tlb.read_hits            0                       # DTB read hits
system.cpu0.dstage2_mmu.stage2_tlb.read_misses            0                       # DTB read misses
system.cpu0.dstage2_mmu.stage2_tlb.write_hits            0                       # DTB write hits
system.cpu0.dstage2_mmu.stage2_tlb.write_misses            0                       # DTB write misses
system.cpu0.dstage2_mmu.stage2_tlb.flush_tlb            0                       # Number of times complete TLB was flushed
system.cpu0.dstage2_mmu.stage2_tlb.flush_tlb_mva            0                       # Number of times TLB was flushed by MVA
system.cpu0.dstage2_mmu.stage2_tlb.flush_tlb_mva_asid            0                       # Number of times TLB was flushed by MVA & ASID
system.cpu0.dstage2_mmu.stage2_tlb.flush_tlb_asid            0                       # Number of times TLB was flushed by ASID
system.cpu0.dstage2_mmu.stage2_tlb.flush_entries            0                       # Number of entries that have been flushed from TLB
system.cpu0.dstage2_mmu.stage2_tlb.align_faults            0                       # Number of TLB faults due to alignment restrictions
system.cpu0.dstage2_mmu.stage2_tlb.prefetch_faults            0                       # Number of TLB faults due to prefetch
system.cpu0.dstage2_mmu.stage2_tlb.domain_faults            0                       # Number of TLB faults due to domain restrictions
system.cpu0.dstage2_mmu.stage2_tlb.perms_faults            0                       # Number of TLB faults due to permissions restrictions
system.cpu0.dstage2_mmu.stage2_tlb.read_accesses            0                       # DTB read accesses
system.cpu0.dstage2_mmu.stage2_tlb.write_accesses            0                       # DTB write accesses
system.cpu0.dstage2_mmu.stage2_tlb.inst_accesses            0                       # ITB inst accesses
system.cpu0.dstage2_mmu.stage2_tlb.hits             0                       # DTB hits
system.cpu0.dstage2_mmu.stage2_tlb.misses            0                       # DTB misses
system.cpu0.dstage2_mmu.stage2_tlb.accesses            0                       # DTB accesses
system.cpu0.dtb.walker.walks                   900960                       # Table walker walks requested
system.cpu0.dtb.walker.walksLong               900960                       # Table walker walks initiated with long descriptors
system.cpu0.dtb.walker.walksLongTerminationLevel::Level2        16847                       # Level at which table walker walks with long descriptors terminate
system.cpu0.dtb.walker.walksLongTerminationLevel::Level3        91388                       # Level at which table walker walks with long descriptors terminate
system.cpu0.dtb.walker.walksSquashedBefore       546326                       # Table walks squashed before starting
system.cpu0.dtb.walker.walkWaitTime::samples       354634                       # Table walker wait (enqueue to first request) latency
system.cpu0.dtb.walker.walkWaitTime::mean  2141.455698                       # Table walker wait (enqueue to first request) latency
system.cpu0.dtb.walker.walkWaitTime::stdev 12590.575916                       # Table walker wait (enqueue to first request) latency
system.cpu0.dtb.walker.walkWaitTime::0-65535       352292     99.34%     99.34% # Table walker wait (enqueue to first request) latency
system.cpu0.dtb.walker.walkWaitTime::65536-131071         1866      0.53%     99.87% # Table walker wait (enqueue to first request) latency
system.cpu0.dtb.walker.walkWaitTime::131072-196607          247      0.07%     99.94% # Table walker wait (enqueue to first request) latency
system.cpu0.dtb.walker.walkWaitTime::196608-262143           95      0.03%     99.96% # Table walker wait (enqueue to first request) latency
system.cpu0.dtb.walker.walkWaitTime::262144-327679           68      0.02%     99.98% # Table walker wait (enqueue to first request) latency
system.cpu0.dtb.walker.walkWaitTime::327680-393215           37      0.01%     99.99% # Table walker wait (enqueue to first request) latency
system.cpu0.dtb.walker.walkWaitTime::393216-458751           25      0.01%    100.00% # Table walker wait (enqueue to first request) latency
system.cpu0.dtb.walker.walkWaitTime::458752-524287            3      0.00%    100.00% # Table walker wait (enqueue to first request) latency
system.cpu0.dtb.walker.walkWaitTime::524288-589823            1      0.00%    100.00% # Table walker wait (enqueue to first request) latency
system.cpu0.dtb.walker.walkWaitTime::total       354634                       # Table walker wait (enqueue to first request) latency
system.cpu0.dtb.walker.walkCompletionTime::samples       411836                       # Table walker service (enqueue to completion) latency
system.cpu0.dtb.walker.walkCompletionTime::mean 21432.646658                       # Table walker service (enqueue to completion) latency
system.cpu0.dtb.walker.walkCompletionTime::gmean 17288.307814                       # Table walker service (enqueue to completion) latency
system.cpu0.dtb.walker.walkCompletionTime::stdev 16337.255715                       # Table walker service (enqueue to completion) latency
system.cpu0.dtb.walker.walkCompletionTime::0-65535       405278     98.41%     98.41% # Table walker service (enqueue to completion) latency
system.cpu0.dtb.walker.walkCompletionTime::65536-131071         5723      1.39%     99.80% # Table walker service (enqueue to completion) latency
system.cpu0.dtb.walker.walkCompletionTime::131072-196607          333      0.08%     99.88% # Table walker service (enqueue to completion) latency
system.cpu0.dtb.walker.walkCompletionTime::196608-262143          332      0.08%     99.96% # Table walker service (enqueue to completion) latency
system.cpu0.dtb.walker.walkCompletionTime::262144-327679           90      0.02%     99.98% # Table walker service (enqueue to completion) latency
system.cpu0.dtb.walker.walkCompletionTime::327680-393215           39      0.01%     99.99% # Table walker service (enqueue to completion) latency
system.cpu0.dtb.walker.walkCompletionTime::393216-458751           17      0.00%     99.99% # Table walker service (enqueue to completion) latency
system.cpu0.dtb.walker.walkCompletionTime::458752-524287           21      0.01%    100.00% # Table walker service (enqueue to completion) latency
system.cpu0.dtb.walker.walkCompletionTime::524288-589823            3      0.00%    100.00% # Table walker service (enqueue to completion) latency
system.cpu0.dtb.walker.walkCompletionTime::total       411836                       # Table walker service (enqueue to completion) latency
system.cpu0.dtb.walker.walksPending::samples 323720569592                       # Table walker pending requests distribution
system.cpu0.dtb.walker.walksPending::mean     0.132299                       # Table walker pending requests distribution
system.cpu0.dtb.walker.walksPending::stdev     0.681450                       # Table walker pending requests distribution
system.cpu0.dtb.walker.walksPending::0-3 322818413592     99.72%     99.72% # Table walker pending requests distribution
system.cpu0.dtb.walker.walksPending::4-7    497609500      0.15%     99.88% # Table walker pending requests distribution
system.cpu0.dtb.walker.walksPending::8-11    179612000      0.06%     99.93% # Table walker pending requests distribution
system.cpu0.dtb.walker.walksPending::12-15    106469500      0.03%     99.96% # Table walker pending requests distribution
system.cpu0.dtb.walker.walksPending::16-19     44651500      0.01%     99.98% # Table walker pending requests distribution
system.cpu0.dtb.walker.walksPending::20-23     21065000      0.01%     99.98% # Table walker pending requests distribution
system.cpu0.dtb.walker.walksPending::24-27     19836500      0.01%     99.99% # Table walker pending requests distribution
system.cpu0.dtb.walker.walksPending::28-31     27755000      0.01%    100.00% # Table walker pending requests distribution
system.cpu0.dtb.walker.walksPending::32-35      4822000      0.00%    100.00% # Table walker pending requests distribution
system.cpu0.dtb.walker.walksPending::36-39       304000      0.00%    100.00% # Table walker pending requests distribution
system.cpu0.dtb.walker.walksPending::40-43        19500      0.00%    100.00% # Table walker pending requests distribution
system.cpu0.dtb.walker.walksPending::44-47         8500      0.00%    100.00% # Table walker pending requests distribution
system.cpu0.dtb.walker.walksPending::48-51         3000      0.00%    100.00% # Table walker pending requests distribution
system.cpu0.dtb.walker.walksPending::total 323720569592                       # Table walker pending requests distribution
system.cpu0.dtb.walker.walkPageSizes::4K        91388     84.43%     84.43% # Table walker page sizes translated
system.cpu0.dtb.walker.walkPageSizes::2M        16847     15.57%    100.00% # Table walker page sizes translated
system.cpu0.dtb.walker.walkPageSizes::total       108235                       # Table walker page sizes translated
system.cpu0.dtb.walker.walkRequestOrigin_Requested::Data       900960                       # Table walker requests started/completed, data/inst
system.cpu0.dtb.walker.walkRequestOrigin_Requested::Inst            0                       # Table walker requests started/completed, data/inst
system.cpu0.dtb.walker.walkRequestOrigin_Requested::total       900960                       # Table walker requests started/completed, data/inst
system.cpu0.dtb.walker.walkRequestOrigin_Completed::Data       108235                       # Table walker requests started/completed, data/inst
system.cpu0.dtb.walker.walkRequestOrigin_Completed::Inst            0                       # Table walker requests started/completed, data/inst
system.cpu0.dtb.walker.walkRequestOrigin_Completed::total       108235                       # Table walker requests started/completed, data/inst
system.cpu0.dtb.walker.walkRequestOrigin::total      1009195                       # Table walker requests started/completed, data/inst
system.cpu0.dtb.inst_hits                           0                       # ITB inst hits
system.cpu0.dtb.inst_misses                         0                       # ITB inst misses
system.cpu0.dtb.read_hits                   105886901                       # DTB read hits
system.cpu0.dtb.read_misses                    623655                       # DTB read misses
system.cpu0.dtb.write_hits                   81874264                       # DTB write hits
system.cpu0.dtb.write_misses                   277305                       # DTB write misses
system.cpu0.dtb.flush_tlb                        1077                       # Number of times complete TLB was flushed
system.cpu0.dtb.flush_tlb_mva                       0                       # Number of times TLB was flushed by MVA
system.cpu0.dtb.flush_tlb_mva_asid              22243                       # Number of times TLB was flushed by MVA & ASID
system.cpu0.dtb.flush_tlb_asid                    520                       # Number of times TLB was flushed by ASID
system.cpu0.dtb.flush_entries                   54719                       # Number of entries that have been flushed from TLB
system.cpu0.dtb.align_faults                      205                       # Number of TLB faults due to alignment restrictions
system.cpu0.dtb.prefetch_faults                  9949                       # Number of TLB faults due to prefetch
system.cpu0.dtb.domain_faults                       0                       # Number of TLB faults due to domain restrictions
system.cpu0.dtb.perms_faults                    55268                       # Number of TLB faults due to permissions restrictions
system.cpu0.dtb.read_accesses               106510556                       # DTB read accesses
system.cpu0.dtb.write_accesses               82151569                       # DTB write accesses
system.cpu0.dtb.inst_accesses                       0                       # ITB inst accesses
system.cpu0.dtb.hits                        187761165                       # DTB hits
system.cpu0.dtb.misses                         900960                       # DTB misses
system.cpu0.dtb.accesses                    188662125                       # DTB accesses
system.cpu0.istage2_mmu.stage2_tlb.walker.walks            0                       # Table walker walks requested
system.cpu0.istage2_mmu.stage2_tlb.walker.walkRequestOrigin_Requested::Data            0                       # Table walker requests started/completed, data/inst
system.cpu0.istage2_mmu.stage2_tlb.walker.walkRequestOrigin_Requested::Inst            0                       # Table walker requests started/completed, data/inst
system.cpu0.istage2_mmu.stage2_tlb.walker.walkRequestOrigin_Requested::total            0                       # Table walker requests started/completed, data/inst
system.cpu0.istage2_mmu.stage2_tlb.walker.walkRequestOrigin_Completed::Data            0                       # Table walker requests started/completed, data/inst
system.cpu0.istage2_mmu.stage2_tlb.walker.walkRequestOrigin_Completed::Inst            0                       # Table walker requests started/completed, data/inst
system.cpu0.istage2_mmu.stage2_tlb.walker.walkRequestOrigin_Completed::total            0                       # Table walker requests started/completed, data/inst
system.cpu0.istage2_mmu.stage2_tlb.walker.walkRequestOrigin::total            0                       # Table walker requests started/completed, data/inst
system.cpu0.istage2_mmu.stage2_tlb.inst_hits            0                       # ITB inst hits
system.cpu0.istage2_mmu.stage2_tlb.inst_misses            0                       # ITB inst misses
system.cpu0.istage2_mmu.stage2_tlb.read_hits            0                       # DTB read hits
system.cpu0.istage2_mmu.stage2_tlb.read_misses            0                       # DTB read misses
system.cpu0.istage2_mmu.stage2_tlb.write_hits            0                       # DTB write hits
system.cpu0.istage2_mmu.stage2_tlb.write_misses            0                       # DTB write misses
system.cpu0.istage2_mmu.stage2_tlb.flush_tlb            0                       # Number of times complete TLB was flushed
system.cpu0.istage2_mmu.stage2_tlb.flush_tlb_mva            0                       # Number of times TLB was flushed by MVA
system.cpu0.istage2_mmu.stage2_tlb.flush_tlb_mva_asid            0                       # Number of times TLB was flushed by MVA & ASID
system.cpu0.istage2_mmu.stage2_tlb.flush_tlb_asid            0                       # Number of times TLB was flushed by ASID
system.cpu0.istage2_mmu.stage2_tlb.flush_entries            0                       # Number of entries that have been flushed from TLB
system.cpu0.istage2_mmu.stage2_tlb.align_faults            0                       # Number of TLB faults due to alignment restrictions
system.cpu0.istage2_mmu.stage2_tlb.prefetch_faults            0                       # Number of TLB faults due to prefetch
system.cpu0.istage2_mmu.stage2_tlb.domain_faults            0                       # Number of TLB faults due to domain restrictions
system.cpu0.istage2_mmu.stage2_tlb.perms_faults            0                       # Number of TLB faults due to permissions restrictions
system.cpu0.istage2_mmu.stage2_tlb.read_accesses            0                       # DTB read accesses
system.cpu0.istage2_mmu.stage2_tlb.write_accesses            0                       # DTB write accesses
system.cpu0.istage2_mmu.stage2_tlb.inst_accesses            0                       # ITB inst accesses
system.cpu0.istage2_mmu.stage2_tlb.hits             0                       # DTB hits
system.cpu0.istage2_mmu.stage2_tlb.misses            0                       # DTB misses
system.cpu0.istage2_mmu.stage2_tlb.accesses            0                       # DTB accesses
system.cpu0.itb.walker.walks                   103995                       # Table walker walks requested
system.cpu0.itb.walker.walksLong               103995                       # Table walker walks initiated with long descriptors
system.cpu0.itb.walker.walksLongTerminationLevel::Level2         2920                       # Level at which table walker walks with long descriptors terminate
system.cpu0.itb.walker.walksLongTerminationLevel::Level3        70184                       # Level at which table walker walks with long descriptors terminate
system.cpu0.itb.walker.walksSquashedBefore        13953                       # Table walks squashed before starting
system.cpu0.itb.walker.walkWaitTime::samples        90042                       # Table walker wait (enqueue to first request) latency
system.cpu0.itb.walker.walkWaitTime::mean  1564.791986                       # Table walker wait (enqueue to first request) latency
system.cpu0.itb.walker.walkWaitTime::stdev  9356.128105                       # Table walker wait (enqueue to first request) latency
system.cpu0.itb.walker.walkWaitTime::0-32767        89344     99.22%     99.22% # Table walker wait (enqueue to first request) latency
system.cpu0.itb.walker.walkWaitTime::32768-65535          299      0.33%     99.56% # Table walker wait (enqueue to first request) latency
system.cpu0.itb.walker.walkWaitTime::65536-98303          238      0.26%     99.82% # Table walker wait (enqueue to first request) latency
system.cpu0.itb.walker.walkWaitTime::98304-131071          101      0.11%     99.93% # Table walker wait (enqueue to first request) latency
system.cpu0.itb.walker.walkWaitTime::131072-163839           19      0.02%     99.95% # Table walker wait (enqueue to first request) latency
system.cpu0.itb.walker.walkWaitTime::163840-196607           13      0.01%     99.97% # Table walker wait (enqueue to first request) latency
system.cpu0.itb.walker.walkWaitTime::196608-229375           12      0.01%     99.98% # Table walker wait (enqueue to first request) latency
system.cpu0.itb.walker.walkWaitTime::229376-262143            4      0.00%     99.99% # Table walker wait (enqueue to first request) latency
system.cpu0.itb.walker.walkWaitTime::262144-294911            7      0.01%     99.99% # Table walker wait (enqueue to first request) latency
system.cpu0.itb.walker.walkWaitTime::294912-327679            2      0.00%    100.00% # Table walker wait (enqueue to first request) latency
system.cpu0.itb.walker.walkWaitTime::327680-360447            1      0.00%    100.00% # Table walker wait (enqueue to first request) latency
system.cpu0.itb.walker.walkWaitTime::360448-393215            1      0.00%    100.00% # Table walker wait (enqueue to first request) latency
system.cpu0.itb.walker.walkWaitTime::393216-425983            1      0.00%    100.00% # Table walker wait (enqueue to first request) latency
system.cpu0.itb.walker.walkWaitTime::total        90042                       # Table walker wait (enqueue to first request) latency
system.cpu0.itb.walker.walkCompletionTime::samples        87057                       # Table walker service (enqueue to completion) latency
system.cpu0.itb.walker.walkCompletionTime::mean 26438.085553                       # Table walker service (enqueue to completion) latency
system.cpu0.itb.walker.walkCompletionTime::gmean 21999.622082                       # Table walker service (enqueue to completion) latency
system.cpu0.itb.walker.walkCompletionTime::stdev 18398.516639                       # Table walker service (enqueue to completion) latency
system.cpu0.itb.walker.walkCompletionTime::0-32767        48630     55.86%     55.86% # Table walker service (enqueue to completion) latency
system.cpu0.itb.walker.walkCompletionTime::32768-65535        36690     42.14%     98.00% # Table walker service (enqueue to completion) latency
system.cpu0.itb.walker.walkCompletionTime::65536-98303          630      0.72%     98.73% # Table walker service (enqueue to completion) latency
system.cpu0.itb.walker.walkCompletionTime::98304-131071          790      0.91%     99.64% # Table walker service (enqueue to completion) latency
system.cpu0.itb.walker.walkCompletionTime::131072-163839          103      0.12%     99.75% # Table walker service (enqueue to completion) latency
system.cpu0.itb.walker.walkCompletionTime::163840-196607           96      0.11%     99.86% # Table walker service (enqueue to completion) latency
system.cpu0.itb.walker.walkCompletionTime::196608-229375           32      0.04%     99.90% # Table walker service (enqueue to completion) latency
system.cpu0.itb.walker.walkCompletionTime::229376-262143           31      0.04%     99.94% # Table walker service (enqueue to completion) latency
system.cpu0.itb.walker.walkCompletionTime::262144-294911           24      0.03%     99.96% # Table walker service (enqueue to completion) latency
system.cpu0.itb.walker.walkCompletionTime::294912-327679           18      0.02%     99.99% # Table walker service (enqueue to completion) latency
system.cpu0.itb.walker.walkCompletionTime::327680-360447           10      0.01%    100.00% # Table walker service (enqueue to completion) latency
system.cpu0.itb.walker.walkCompletionTime::360448-393215            1      0.00%    100.00% # Table walker service (enqueue to completion) latency
system.cpu0.itb.walker.walkCompletionTime::425984-458751            2      0.00%    100.00% # Table walker service (enqueue to completion) latency
system.cpu0.itb.walker.walkCompletionTime::total        87057                       # Table walker service (enqueue to completion) latency
system.cpu0.itb.walker.walksPending::samples 276399275336                       # Table walker pending requests distribution
system.cpu0.itb.walker.walksPending::mean     1.905006                       # Table walker pending requests distribution
system.cpu0.itb.walker.walksPending::0   -250074257964    -90.48%    -90.48% # Table walker pending requests distribution
system.cpu0.itb.walker.walksPending::1   526414060300    190.45%     99.98% # Table walker pending requests distribution
system.cpu0.itb.walker.walksPending::2       52102500      0.02%    100.00% # Table walker pending requests distribution
system.cpu0.itb.walker.walksPending::3        6093500      0.00%    100.00% # Table walker pending requests distribution
system.cpu0.itb.walker.walksPending::4         943000      0.00%    100.00% # Table walker pending requests distribution
system.cpu0.itb.walker.walksPending::5         232500      0.00%    100.00% # Table walker pending requests distribution
system.cpu0.itb.walker.walksPending::6          42500      0.00%    100.00% # Table walker pending requests distribution
system.cpu0.itb.walker.walksPending::7          59000      0.00%    100.00% # Table walker pending requests distribution
system.cpu0.itb.walker.walksPending::total 276399275336                       # Table walker pending requests distribution
system.cpu0.itb.walker.walkPageSizes::4K        70184     96.01%     96.01% # Table walker page sizes translated
system.cpu0.itb.walker.walkPageSizes::2M         2920      3.99%    100.00% # Table walker page sizes translated
system.cpu0.itb.walker.walkPageSizes::total        73104                       # Table walker page sizes translated
system.cpu0.itb.walker.walkRequestOrigin_Requested::Data            0                       # Table walker requests started/completed, data/inst
system.cpu0.itb.walker.walkRequestOrigin_Requested::Inst       103995                       # Table walker requests started/completed, data/inst
system.cpu0.itb.walker.walkRequestOrigin_Requested::total       103995                       # Table walker requests started/completed, data/inst
system.cpu0.itb.walker.walkRequestOrigin_Completed::Data            0                       # Table walker requests started/completed, data/inst
system.cpu0.itb.walker.walkRequestOrigin_Completed::Inst        73104                       # Table walker requests started/completed, data/inst
system.cpu0.itb.walker.walkRequestOrigin_Completed::total        73104                       # Table walker requests started/completed, data/inst
system.cpu0.itb.walker.walkRequestOrigin::total       177099                       # Table walker requests started/completed, data/inst
system.cpu0.itb.inst_hits                    95374234                       # ITB inst hits
system.cpu0.itb.inst_misses                    103995                       # ITB inst misses
system.cpu0.itb.read_hits                           0                       # DTB read hits
system.cpu0.itb.read_misses                         0                       # DTB read misses
system.cpu0.itb.write_hits                          0                       # DTB write hits
system.cpu0.itb.write_misses                        0                       # DTB write misses
system.cpu0.itb.flush_tlb                        1077                       # Number of times complete TLB was flushed
system.cpu0.itb.flush_tlb_mva                       0                       # Number of times TLB was flushed by MVA
system.cpu0.itb.flush_tlb_mva_asid              22243                       # Number of times TLB was flushed by MVA & ASID
system.cpu0.itb.flush_tlb_asid                    520                       # Number of times TLB was flushed by ASID
system.cpu0.itb.flush_entries                   40386                       # Number of entries that have been flushed from TLB
system.cpu0.itb.align_faults                        0                       # Number of TLB faults due to alignment restrictions
system.cpu0.itb.prefetch_faults                     0                       # Number of TLB faults due to prefetch
system.cpu0.itb.domain_faults                       0                       # Number of TLB faults due to domain restrictions
system.cpu0.itb.perms_faults                   207806                       # Number of TLB faults due to permissions restrictions
system.cpu0.itb.read_accesses                       0                       # DTB read accesses
system.cpu0.itb.write_accesses                      0                       # DTB write accesses
system.cpu0.itb.inst_accesses                95478229                       # ITB inst accesses
system.cpu0.itb.hits                         95374234                       # DTB hits
system.cpu0.itb.misses                         103995                       # DTB misses
system.cpu0.itb.accesses                     95478229                       # DTB accesses
system.cpu0.numCycles                       670757384                       # number of cpu cycles simulated
system.cpu0.numWorkItemsStarted                     0                       # number of work items this cpu started
system.cpu0.numWorkItemsCompleted                   0                       # number of work items this cpu completed
system.cpu0.fetch.icacheStallCycles         244295585                       # Number of cycles fetch is stalled on an Icache miss
system.cpu0.fetch.Insts                     592642803                       # Number of instructions fetch has processed
system.cpu0.fetch.Branches                  133240776                       # Number of branches that fetch encountered
system.cpu0.fetch.predictedBranches          82571499                       # Number of branches that fetch has predicted taken
system.cpu0.fetch.Cycles                    387821427                       # Number of cycles fetch has run and was not squashing or blocked
system.cpu0.fetch.SquashCycles               13413764                       # Number of cycles fetch has spent squashing
system.cpu0.fetch.TlbCycles                   2417197                       # Number of cycles fetch has spent waiting for tlb
system.cpu0.fetch.MiscStallCycles               21066                       # Number of cycles fetch has spent waiting on interrupts, or bad addresses, or out of MSHRs
system.cpu0.fetch.PendingDrainCycles             3440                       # Number of cycles fetch has spent waiting on pipes to drain
system.cpu0.fetch.PendingTrapStallCycles      5441880                       # Number of stall cycles due to pending traps
system.cpu0.fetch.PendingQuiesceStallCycles       164758                       # Number of stall cycles due to pending quiesce instructions
system.cpu0.fetch.IcacheWaitRetryStallCycles         2028                       # Number of stall cycles due to full MSHR
system.cpu0.fetch.CacheLines                 95148929                       # Number of cache lines fetched
system.cpu0.fetch.IcacheSquashes              3635106                       # Number of outstanding Icache misses that were squashed
system.cpu0.fetch.ItlbSquashes                  41714                       # Number of outstanding ITLB misses that were squashed
system.cpu0.fetch.rateDist::samples         646873994                       # Number of instructions fetched each cycle (Total)
system.cpu0.fetch.rateDist::mean             1.071808                       # Number of instructions fetched each cycle (Total)
system.cpu0.fetch.rateDist::stdev            2.317751                       # Number of instructions fetched each cycle (Total)
system.cpu0.fetch.rateDist::underflows              0      0.00%      0.00% # Number of instructions fetched each cycle (Total)
system.cpu0.fetch.rateDist::0               500514392     77.37%     77.37% # Number of instructions fetched each cycle (Total)
system.cpu0.fetch.rateDist::1                18314774      2.83%     80.21% # Number of instructions fetched each cycle (Total)
system.cpu0.fetch.rateDist::2                18453367      2.85%     83.06% # Number of instructions fetched each cycle (Total)
system.cpu0.fetch.rateDist::3                13440049      2.08%     85.14% # Number of instructions fetched each cycle (Total)
system.cpu0.fetch.rateDist::4                29078999      4.50%     89.63% # Number of instructions fetched each cycle (Total)
system.cpu0.fetch.rateDist::5                 9061143      1.40%     91.03% # Number of instructions fetched each cycle (Total)
system.cpu0.fetch.rateDist::6                 9714650      1.50%     92.53% # Number of instructions fetched each cycle (Total)
system.cpu0.fetch.rateDist::7                 8499613      1.31%     93.85% # Number of instructions fetched each cycle (Total)
system.cpu0.fetch.rateDist::8                39797007      6.15%    100.00% # Number of instructions fetched each cycle (Total)
system.cpu0.fetch.rateDist::overflows               0      0.00%    100.00% # Number of instructions fetched each cycle (Total)
system.cpu0.fetch.rateDist::min_value               0                       # Number of instructions fetched each cycle (Total)
system.cpu0.fetch.rateDist::max_value               8                       # Number of instructions fetched each cycle (Total)
system.cpu0.fetch.rateDist::total           646873994                       # Number of instructions fetched each cycle (Total)
system.cpu0.fetch.branchRate                 0.198642                       # Number of branch fetches per cycle
system.cpu0.fetch.rate                       0.883543                       # Number of inst fetches per cycle
system.cpu0.decode.IdleCycles               198183326                       # Number of cycles decode is idle
system.cpu0.decode.BlockedCycles            323426019                       # Number of cycles decode is blocked
system.cpu0.decode.RunCycles                105981621                       # Number of cycles decode is running
system.cpu0.decode.UnblockCycles             13950733                       # Number of cycles decode is unblocking
system.cpu0.decode.SquashCycles               5329290                       # Number of cycles decode is squashing
system.cpu0.decode.BranchResolved            19638547                       # Number of times decode resolved a branch
system.cpu0.decode.BranchMispred              1397625                       # Number of times decode detected a branch misprediction
system.cpu0.decode.DecodedInsts             646526277                       # Number of instructions handled by decode
system.cpu0.decode.SquashedInsts              4318123                       # Number of squashed instructions handled by decode
system.cpu0.rename.SquashCycles               5329290                       # Number of cycles rename is squashing
system.cpu0.rename.IdleCycles               205971985                       # Number of cycles rename is idle
system.cpu0.rename.BlockCycles               23697587                       # Number of cycles rename is blocking
system.cpu0.rename.serializeStallCycles     259101155                       # count of cycles rename stalled for serializing inst
system.cpu0.rename.RunCycles                111995163                       # Number of cycles rename is running
system.cpu0.rename.UnblockCycles             40775442                       # Number of cycles rename is unblocking
system.cpu0.rename.RenamedInsts             631047036                       # Number of instructions processed by rename
system.cpu0.rename.ROBFullEvents                83751                       # Number of times rename has blocked due to ROB full
system.cpu0.rename.IQFullEvents               2209243                       # Number of times rename has blocked due to IQ full
system.cpu0.rename.LQFullEvents               1613560                       # Number of times rename has blocked due to LQ full
system.cpu0.rename.SQFullEvents              20761963                       # Number of times rename has blocked due to SQ full
system.cpu0.rename.FullRegisterEvents            3444                       # Number of times there has been no free registers
system.cpu0.rename.RenamedOperands          605295621                       # Number of destination operands rename has renamed
system.cpu0.rename.RenameLookups            976490610                       # Number of register rename lookups that rename has made
[...]
system.l2c.overall_avg_mshr_miss_latency::cpu0.dtb.walker 77276.304400                       # average overall mshr miss latency
system.l2c.overall_avg_mshr_miss_latency::cpu0.itb.walker 76718.356110                       # average overall mshr miss latency
system.l2c.overall_avg_mshr_miss_latency::cpu0.inst 73383.389814                       # average overall mshr miss latency
system.l2c.overall_avg_mshr_miss_latency::cpu0.data 85804.315022                       # average overall mshr miss latency
system.l2c.overall_avg_mshr_miss_latency::cpu1.dtb.walker 77158.333596                       # average overall mshr miss latency
system.l2c.overall_avg_mshr_miss_latency::cpu1.itb.walker 76434.667695                       # average overall mshr miss latency
system.l2c.overall_avg_mshr_miss_latency::cpu1.inst 72551.661137                       # average overall mshr miss latency
system.l2c.overall_avg_mshr_miss_latency::cpu1.data 85230.972836                       # average overall mshr miss latency
system.l2c.overall_avg_mshr_miss_latency::total 84210.269261                       # average overall mshr miss latency
system.l2c.ReadReq_avg_mshr_uncacheable_latency::cpu0.inst 59586.844502                       # average ReadReq mshr uncacheable latency
system.l2c.ReadReq_avg_mshr_uncacheable_latency::cpu0.data 156516.496920                       # average ReadReq mshr uncacheable latency
system.l2c.ReadReq_avg_mshr_uncacheable_latency::cpu1.inst 59515.606170                       # average ReadReq mshr uncacheable latency
system.l2c.ReadReq_avg_mshr_uncacheable_latency::cpu1.data 157547.431002                       # average ReadReq mshr uncacheable latency
system.l2c.ReadReq_avg_mshr_uncacheable_latency::total 120004.326258                       # average ReadReq mshr uncacheable latency
system.l2c.WriteReq_avg_mshr_uncacheable_latency::cpu0.data 144678.402317                       # average WriteReq mshr uncacheable latency
system.l2c.WriteReq_avg_mshr_uncacheable_latency::cpu1.data 163761.748762                       # average WriteReq mshr uncacheable latency
system.l2c.WriteReq_avg_mshr_uncacheable_latency::total 153595.705730                       # average WriteReq mshr uncacheable latency
system.l2c.overall_avg_mshr_uncacheable_latency::cpu0.inst 59586.844502                       # average overall mshr uncacheable latency
system.l2c.overall_avg_mshr_uncacheable_latency::cpu0.data 150329.655293                       # average overall mshr uncacheable latency
system.l2c.overall_avg_mshr_uncacheable_latency::cpu1.inst 59515.606170                       # average overall mshr uncacheable latency
system.l2c.overall_avg_mshr_uncacheable_latency::cpu1.data 160509.998668                       # average overall mshr uncacheable latency
system.l2c.overall_avg_mshr_uncacheable_latency::total 132864.814284                       # average overall mshr uncacheable latency
system.l2c.no_allocate_misses                       0                       # Number of misses that were no-allocate
system.membus.trans_dist::ReadReq              483310                       # Transaction distribution
system.membus.trans_dist::ReadResp             483310                       # Transaction distribution
system.membus.trans_dist::WriteReq              33697                       # Transaction distribution
system.membus.trans_dist::WriteResp             33697                       # Transaction distribution
system.membus.trans_dist::Writeback           1301300                       # Transaction distribution
system.membus.trans_dist::WriteInvalidateReq       626202                       # Transaction distribution
system.membus.trans_dist::WriteInvalidateResp       626202                       # Transaction distribution
system.membus.trans_dist::UpgradeReq            37394                       # Transaction distribution
system.membus.trans_dist::SCUpgradeReq              2                       # Transaction distribution
system.membus.trans_dist::UpgradeResp           37396                       # Transaction distribution
system.membus.trans_dist::ReadExReq            566817                       # Transaction distribution
system.membus.trans_dist::ReadExResp           566817                       # Transaction distribution
system.membus.pkt_count_system.l2c.mem_side::system.bridge.slave       122704                       # Packet count per connected master and slave (bytes)
system.membus.pkt_count_system.l2c.mem_side::system.realview.nvmem.port           78                       # Packet count per connected master and slave (bytes)
system.membus.pkt_count_system.l2c.mem_side::system.realview.gic.pio         6864                       # Packet count per connected master and slave (bytes)
system.membus.pkt_count_system.l2c.mem_side::system.physmem.port      4328173                       # Packet count per connected master and slave (bytes)
system.membus.pkt_count_system.l2c.mem_side::total      4457819                       # Packet count per connected master and slave (bytes)
system.membus.pkt_count_system.iocache.mem_side::system.physmem.port       335539                       # Packet count per connected master and slave (bytes)
system.membus.pkt_count_system.iocache.mem_side::total       335539                       # Packet count per connected master and slave (bytes)
system.membus.pkt_count::total                4793358                       # Packet count per connected master and slave (bytes)
system.membus.pkt_size_system.l2c.mem_side::system.bridge.slave       155834                       # Cumulative packet size per connected master and slave (bytes)
system.membus.pkt_size_system.l2c.mem_side::system.realview.nvmem.port         2212                       # Cumulative packet size per connected master and slave (bytes)
system.membus.pkt_size_system.l2c.mem_side::system.realview.gic.pio        13728                       # Cumulative packet size per connected master and slave (bytes)
system.membus.pkt_size_system.l2c.mem_side::system.physmem.port    174172012                       # Cumulative packet size per connected master and slave (bytes)
system.membus.pkt_size_system.l2c.mem_side::total    174343786                       # Cumulative packet size per connected master and slave (bytes)
system.membus.pkt_size_system.iocache.mem_side::system.physmem.port     14081472                       # Cumulative packet size per connected master and slave (bytes)
system.membus.pkt_size_system.iocache.mem_side::total     14081472                       # Cumulative packet size per connected master and slave (bytes)
system.membus.pkt_size::total               188425258                       # Cumulative packet size per connected master and slave (bytes)
system.membus.snoops                             2786                       # Total snoops (count)
system.membus.snoop_fanout::samples           3049369                       # Request fanout histogram
system.membus.snoop_fanout::mean                    1                       # Request fanout histogram
system.membus.snoop_fanout::stdev                   0                       # Request fanout histogram
system.membus.snoop_fanout::underflows              0      0.00%      0.00% # Request fanout histogram
system.membus.snoop_fanout::0                       0      0.00%      0.00% # Request fanout histogram
system.membus.snoop_fanout::1                 3049369    100.00%    100.00% # Request fanout histogram
system.membus.snoop_fanout::2                       0      0.00%    100.00% # Request fanout histogram
system.membus.snoop_fanout::overflows               0      0.00%    100.00% # Request fanout histogram
system.membus.snoop_fanout::min_value               1                       # Request fanout histogram
system.membus.snoop_fanout::max_value               1                       # Request fanout histogram
system.membus.snoop_fanout::total             3049369                       # Request fanout histogram
system.membus.reqLayer0.occupancy           113801500                       # Layer occupancy (ticks)
system.membus.reqLayer0.utilization               0.0                       # Layer utilization (%)
system.membus.reqLayer1.occupancy               51156                       # Layer occupancy (ticks)
system.membus.reqLayer1.utilization               0.0                       # Layer utilization (%)
system.membus.reqLayer2.occupancy             5469002                       # Layer occupancy (ticks)
system.membus.reqLayer2.utilization               0.0                       # Layer utilization (%)
system.membus.reqLayer5.occupancy         11041524273                       # Layer occupancy (ticks)
system.membus.reqLayer5.utilization               0.0                       # Layer utilization (%)
system.membus.respLayer2.occupancy         6008607805                       # Layer occupancy (ticks)
system.membus.respLayer2.utilization              0.0                       # Layer utilization (%)
system.membus.respLayer3.occupancy          151555991                       # Layer occupancy (ticks)
system.membus.respLayer3.utilization              0.0                       # Layer utilization (%)
system.realview.ethernet.txBytes                  966                       # Bytes Transmitted
system.realview.ethernet.txPackets                  3                       # Number of Packets Transmitted
system.realview.ethernet.txIpChecksums              0                       # Number of tx IP Checksums done by device
system.realview.ethernet.txTcpChecksums             0                       # Number of tx TCP Checksums done by device
system.realview.ethernet.txUdpChecksums             0                       # Number of tx UDP Checksums done by device
system.realview.ethernet.descDMAReads               0                       # Number of descriptors the device read w/ DMA
system.realview.ethernet.descDMAWrites              0                       # Number of descriptors the device wrote w/ DMA
system.realview.ethernet.descDmaReadBytes            0                       # number of descriptor bytes read w/ DMA
system.realview.ethernet.descDmaWriteBytes            0                       # number of descriptor bytes write w/ DMA
system.realview.ethernet.totBandwidth             151                       # Total Bandwidth (bits/s)
system.realview.ethernet.totPackets                 3                       # Total Packets
system.realview.ethernet.totBytes                 966                       # Total Bytes
system.realview.ethernet.totPPS                     0                       # Total Tranmission Rate (packets/s)
system.realview.ethernet.txBandwidth              151                       # Transmit Bandwidth (bits/s)
system.realview.ethernet.txPPS                      0                       # Packet Tranmission Rate (packets/s)
system.realview.ethernet.postedSwi                  0                       # number of software interrupts posted to CPU
system.realview.ethernet.coalescedSwi               0                       # average number of Swi's coalesced into each post
system.realview.ethernet.totalSwi                   0                       # total number of Swi written to ISR
system.realview.ethernet.postedRxIdle               0                       # number of rxIdle interrupts posted to CPU
system.realview.ethernet.coalescedRxIdle            0                       # average number of RxIdle's coalesced into each post
system.realview.ethernet.totalRxIdle                0                       # total number of RxIdle written to ISR
system.realview.ethernet.postedRxOk                 0                       # number of RxOk interrupts posted to CPU
system.realview.ethernet.coalescedRxOk              0                       # average number of RxOk's coalesced into each post
system.realview.ethernet.totalRxOk                  0                       # total number of RxOk written to ISR
system.realview.ethernet.postedRxDesc               0                       # number of RxDesc interrupts posted to CPU
system.realview.ethernet.coalescedRxDesc            0                       # average number of RxDesc's coalesced into each post
system.realview.ethernet.totalRxDesc                0                       # total number of RxDesc written to ISR
system.realview.ethernet.postedTxOk                 0                       # number of TxOk interrupts posted to CPU
system.realview.ethernet.coalescedTxOk              0                       # average number of TxOk's coalesced into each post
system.realview.ethernet.totalTxOk                  0                       # total number of TxOk written to ISR
system.realview.ethernet.postedTxIdle               0                       # number of TxIdle interrupts posted to CPU
system.realview.ethernet.coalescedTxIdle            0                       # average number of TxIdle's coalesced into each post
system.realview.ethernet.totalTxIdle                0                       # total number of TxIdle written to ISR
system.realview.ethernet.postedTxDesc               0                       # number of TxDesc interrupts posted to CPU
system.realview.ethernet.coalescedTxDesc            0                       # average number of TxDesc's coalesced into each post
system.realview.ethernet.totalTxDesc                0                       # total number of TxDesc written to ISR
system.realview.ethernet.postedRxOrn                0                       # number of RxOrn posted to CPU
system.realview.ethernet.coalescedRxOrn             0                       # average number of RxOrn's coalesced into each post
system.realview.ethernet.totalRxOrn                 0                       # total number of RxOrn written to ISR
system.realview.ethernet.coalescedTotal             0                       # average number of interrupts coalesced into each post
system.realview.ethernet.postedInterrupts           18                       # number of posts to CPU
system.realview.ethernet.droppedPackets             0                       # number of packets dropped
system.toL2Bus.trans_dist::ReadReq           25599599                       # Transaction distribution
system.toL2Bus.trans_dist::ReadResp          25591523                       # Transaction distribution
system.toL2Bus.trans_dist::WriteReq             33697                       # Transaction distribution
system.toL2Bus.trans_dist::WriteResp            33697                       # Transaction distribution
system.toL2Bus.trans_dist::Writeback          8209351                       # Transaction distribution
system.toL2Bus.trans_dist::WriteInvalidateReq      1340869                       # Transaction distribution
system.toL2Bus.trans_dist::WriteInvalidateResp      1234101                       # Transaction distribution
system.toL2Bus.trans_dist::UpgradeReq           46602                       # Transaction distribution
system.toL2Bus.trans_dist::SCUpgradeReq            12                       # Transaction distribution
system.toL2Bus.trans_dist::UpgradeResp          46614                       # Transaction distribution
system.toL2Bus.trans_dist::ReadExReq          2167911                       # Transaction distribution
system.toL2Bus.trans_dist::ReadExResp         2167911                       # Transaction distribution
system.toL2Bus.pkt_count_system.cpu0.icache.mem_side::system.l2c.cpu_side     32380531                       # Packet count per connected master and slave (bytes)
system.toL2Bus.pkt_count_system.cpu0.dcache.mem_side::system.l2c.cpu_side     29914539                       # Packet count per connected master and slave (bytes)
system.toL2Bus.pkt_count_system.cpu0.itb.walker.dma::system.l2c.cpu_side       911927                       # Packet count per connected master and slave (bytes)
system.toL2Bus.pkt_count_system.cpu0.dtb.walker.dma::system.l2c.cpu_side      2596271                       # Packet count per connected master and slave (bytes)
system.toL2Bus.pkt_count::total              65803268                       # Packet count per connected master and slave (bytes)
system.toL2Bus.pkt_size_system.cpu0.icache.mem_side::system.l2c.cpu_side   1036169984                       # Cumulative packet size per connected master and slave (bytes)
system.toL2Bus.pkt_size_system.cpu0.dcache.mem_side::system.l2c.cpu_side   1212884202                       # Cumulative packet size per connected master and slave (bytes)
system.toL2Bus.pkt_size_system.cpu0.itb.walker.dma::system.l2c.cpu_side      3059264                       # Cumulative packet size per connected master and slave (bytes)
system.toL2Bus.pkt_size_system.cpu0.dtb.walker.dma::system.l2c.cpu_side      8762408                       # Cumulative packet size per connected master and slave (bytes)
system.toL2Bus.pkt_size::total             2260875858                       # Cumulative packet size per connected master and slave (bytes)
system.toL2Bus.snoops                          669395                       # Total snoops (count)
system.toL2Bus.snoop_fanout::samples         37398155                       # Request fanout histogram
system.toL2Bus.snoop_fanout::mean            1.057385                       # Request fanout histogram
system.toL2Bus.snoop_fanout::stdev           0.232578                       # Request fanout histogram
system.toL2Bus.snoop_fanout::underflows             0      0.00%      0.00% # Request fanout histogram
system.toL2Bus.snoop_fanout::0                      0      0.00%      0.00% # Request fanout histogram
system.toL2Bus.snoop_fanout::1               35252045     94.26%     94.26% # Request fanout histogram
system.toL2Bus.snoop_fanout::2                2146110      5.74%    100.00% # Request fanout histogram
system.toL2Bus.snoop_fanout::overflows              0      0.00%    100.00% # Request fanout histogram
system.toL2Bus.snoop_fanout::min_value              1                       # Request fanout histogram
system.toL2Bus.snoop_fanout::max_value              2                       # Request fanout histogram
system.toL2Bus.snoop_fanout::total           37398155                       # Request fanout histogram
system.toL2Bus.reqLayer0.occupancy        28102852815                       # Layer occupancy (ticks)
system.toL2Bus.reqLayer0.utilization              0.1                       # Layer utilization (%)
system.toL2Bus.snoopLayer0.occupancy          1161000                       # Layer occupancy (ticks)
system.toL2Bus.snoopLayer0.utilization            0.0                       # Layer utilization (%)
system.toL2Bus.respLayer0.occupancy       24319536063                       # Layer occupancy (ticks)
system.toL2Bus.respLayer0.utilization             0.0                       # Layer utilization (%)
system.toL2Bus.respLayer1.occupancy       15088594286                       # Layer occupancy (ticks)
system.toL2Bus.respLayer1.utilization             0.0                       # Layer utilization (%)
system.toL2Bus.respLayer2.occupancy         530670154                       # Layer occupancy (ticks)
system.toL2Bus.respLayer2.utilization             0.0                       # Layer utilization (%)
system.toL2Bus.respLayer3.occupancy        1505035766                       # Layer occupancy (ticks)
system.toL2Bus.respLayer3.utilization             0.0                       # Layer utilization (%)
system.cpu0.kern.inst.arm                           0                       # number of arm instructions executed
system.cpu0.kern.inst.quiesce                   16426                       # number of quiesce instructions executed
system.cpu1.kern.inst.arm                           0                       # number of arm instructions executed
system.cpu1.kern.inst.quiesce                       0                       # number of quiesce instructions executed

---------- End Simulation Statistics   ----------
