
---------- Begin Simulation Statistics ----------
sim_seconds                                 51.289289                       # Number of seconds simulated
sim_ticks                                51289289109000                       # Number of ticks simulated
final_tick                               51289289109000                       # Number of ticks from beginning of simulation (restored from checkpoints and never reset)
sim_freq                                 1000000000000                       # Frequency of simulated ticks
host_inst_rate                                 116964                       # Simulator instruction rate (inst/s)
host_op_rate                                   137448                       # Simulator op (including micro ops) rate (op/s)
host_tick_rate                             6754182467                       # Simulator tick rate (ticks/s)
host_mem_usage                                 688124                       # Number of bytes of host memory used
host_seconds                                  7593.71                       # Real time elapsed on the host
sim_insts                                   888194021                       # Number of instructions simulated
sim_ops                                    1043742869                       # Number of ops (including micro ops) simulated
system.voltage_domain.voltage                       1                       # Voltage in Volts
system.clk_domain.clock                          1000                       # Clock period in ticks
system.physmem.bytes_read::cpu0.dtb.walker       151872                       # Number of bytes read from this memory
system.physmem.bytes_read::cpu0.itb.walker       139200                       # Number of bytes read from this memory
system.physmem.bytes_read::cpu0.inst          4024896                       # Number of bytes read from this memory
system.physmem.bytes_read::cpu0.data         41634016                       # Number of bytes read from this memory
system.physmem.bytes_read::cpu1.dtb.walker       137024                       # Number of bytes read from this memory
system.physmem.bytes_read::cpu1.itb.walker       129408                       # Number of bytes read from this memory
system.physmem.bytes_read::cpu1.inst          3236928                       # Number of bytes read from this memory
system.physmem.bytes_read::cpu1.data         42391336                       # Number of bytes read from this memory
system.physmem.bytes_read::realview.ide        430592                       # Number of bytes read from this memory
system.physmem.bytes_read::total             92275272                       # Number of bytes read from this memory
system.physmem.bytes_inst_read::cpu0.inst      4024896                       # Number of instructions bytes read from this memory
system.physmem.bytes_inst_read::cpu1.inst      3236928                       # Number of instructions bytes read from this memory
system.physmem.bytes_inst_read::total         7261824                       # Number of instructions bytes read from this memory
system.physmem.bytes_written::writebacks     78300352                       # Number of bytes written to this memory
system.physmem.bytes_written::cpu0.data             4                       # Number of bytes written to this memory
system.physmem.bytes_written::cpu1.data         20576                       # Number of bytes written to this memory
system.physmem.bytes_written::total          78320932                       # Number of bytes written to this memory
system.physmem.num_reads::cpu0.dtb.walker         2373                       # Number of read requests responded to by this memory
system.physmem.num_reads::cpu0.itb.walker         2175                       # Number of read requests responded to by this memory
system.physmem.num_reads::cpu0.inst             62889                       # Number of read requests responded to by this memory
system.physmem.num_reads::cpu0.data            650540                       # Number of read requests responded to by this memory
system.physmem.num_reads::cpu1.dtb.walker         2141                       # Number of read requests responded to by this memory
system.physmem.num_reads::cpu1.itb.walker         2022                       # Number of read requests responded to by this memory
system.physmem.num_reads::cpu1.inst             50577                       # Number of read requests responded to by this memory
system.physmem.num_reads::cpu1.data            662369                       # Number of read requests responded to by this memory
system.physmem.num_reads::realview.ide           6728                       # Number of read requests responded to by this memory
system.physmem.num_reads::total               1441814                       # Number of read requests responded to by this memory
system.physmem.num_writes::writebacks         1223443                       # Number of write requests responded to by this memory
system.physmem.num_writes::cpu0.data                1                       # Number of write requests responded to by this memory
system.physmem.num_writes::cpu1.data             2572                       # Number of write requests responded to by this memory
system.physmem.num_writes::total              1226016                       # Number of write requests responded to by this memory
system.physmem.bw_read::cpu0.dtb.walker          2961                       # Total read bandwidth from this memory (bytes/s)
system.physmem.bw_read::cpu0.itb.walker          2714                       # Total read bandwidth from this memory (bytes/s)
system.physmem.bw_read::cpu0.inst               78474                       # Total read bandwidth from this memory (bytes/s)
system.physmem.bw_read::cpu0.data              811749                       # Total read bandwidth from this memory (bytes/s)
system.physmem.bw_read::cpu1.dtb.walker          2672                       # Total read bandwidth from this memory (bytes/s)
system.physmem.bw_read::cpu1.itb.walker          2523                       # Total read bandwidth from this memory (bytes/s)
system.physmem.bw_read::cpu1.inst               63111                       # Total read bandwidth from this memory (bytes/s)
system.physmem.bw_read::cpu1.data              826514                       # Total read bandwidth from this memory (bytes/s)
system.physmem.bw_read::realview.ide             8395                       # Total read bandwidth from this memory (bytes/s)
system.physmem.bw_read::total                 1799114                       # Total read bandwidth from this memory (bytes/s)
system.physmem.bw_inst_read::cpu0.inst          78474                       # Instruction read bandwidth from this memory (bytes/s)
system.physmem.bw_inst_read::cpu1.inst          63111                       # Instruction read bandwidth from this memory (bytes/s)
system.physmem.bw_inst_read::total             141586                       # Instruction read bandwidth from this memory (bytes/s)
system.physmem.bw_write::writebacks           1526641                       # Write bandwidth from this memory (bytes/s)
system.physmem.bw_write::cpu0.data                  0                       # Write bandwidth from this memory (bytes/s)
system.physmem.bw_write::cpu1.data                401                       # Write bandwidth from this memory (bytes/s)
system.physmem.bw_write::total                1527043                       # Write bandwidth from this memory (bytes/s)
system.physmem.bw_total::writebacks           1526641                       # Total bandwidth to/from this memory (bytes/s)
system.physmem.bw_total::cpu0.dtb.walker         2961                       # Total bandwidth to/from this memory (bytes/s)
system.physmem.bw_total::cpu0.itb.walker         2714                       # Total bandwidth to/from this memory (bytes/s)
system.physmem.bw_total::cpu0.inst              78474                       # Total bandwidth to/from this memory (bytes/s)
system.physmem.bw_total::cpu0.data             811749                       # Total bandwidth to/from this memory (bytes/s)
system.physmem.bw_total::cpu1.dtb.walker         2672                       # Total bandwidth to/from this memory (bytes/s)
system.physmem.bw_total::cpu1.itb.walker         2523                       # Total bandwidth to/from this memory (bytes/s)
system.physmem.bw_total::cpu1.inst              63111                       # Total bandwidth to/from this memory (bytes/s)
system.physmem.bw_total::cpu1.data             826916                       # Total bandwidth to/from this memory (bytes/s)
system.physmem.bw_total::realview.ide            8395                       # Total bandwidth to/from this memory (bytes/s)
system.physmem.bw_total::total                3326157                       # Total bandwidth to/from this memory (bytes/s)
system.physmem.readReqs                       1441814                       # Number of read requests accepted
system.physmem.writeReqs                      1226016                       # Number of write requests accepted
system.physmem.readBursts                     1441814                       # Number of DRAM read bursts, including those serviced by the write queue
system.physmem.writeBursts                    1226016                       # Number of DRAM write bursts, including those merged in the write queue
system.physmem.bytesReadDRAM                 92235136                       # Total number of bytes read from DRAM
system.physmem.bytesReadWrQ                     40960                       # Total number of bytes read from write queue
system.physmem.bytesWritten                  78321024                       # Total number of bytes written to DRAM
system.physmem.bytesReadSys                  92275272                       # Total read bytes from the system interface side
system.physmem.bytesWrittenSys               78320932                       # Total written bytes from the system interface side
system.physmem.servicedByWrQ                      640                       # Number of DRAM read bursts serviced by the write queue
system.physmem.mergedWrBursts                    2246                       # Number of DRAM write bursts merged with an existing one
system.physmem.neitherReadNorWriteReqs         143274                       # Number of requests that are neither read nor write
system.physmem.perBankRdBursts::0               85394                       # Per bank write bursts
system.physmem.perBankRdBursts::1               90340                       # Per bank write bursts
system.physmem.perBankRdBursts::2               85251                       # Per bank write bursts
system.physmem.perBankRdBursts::3               84742                       # Per bank write bursts
system.physmem.perBankRdBursts::4               87352                       # Per bank write bursts
system.physmem.perBankRdBursts::5               95958                       # Per bank write bursts
system.physmem.perBankRdBursts::6               87724                       # Per bank write bursts
system.physmem.perBankRdBursts::7               87120                       # Per bank write bursts
system.physmem.perBankRdBursts::8               85128                       # Per bank write bursts
system.physmem.perBankRdBursts::9              115032                       # Per bank write bursts
system.physmem.perBankRdBursts::10              93810                       # Per bank write bursts
system.physmem.perBankRdBursts::11              94841                       # Per bank write bursts
system.physmem.perBankRdBursts::12              83101                       # Per bank write bursts
system.physmem.perBankRdBursts::13              88197                       # Per bank write bursts
system.physmem.perBankRdBursts::14              87648                       # Per bank write bursts
system.physmem.perBankRdBursts::15              89536                       # Per bank write bursts
system.physmem.perBankWrBursts::0               72684                       # Per bank write bursts
system.physmem.perBankWrBursts::1               76025                       # Per bank write bursts
system.physmem.perBankWrBursts::2               73393                       # Per bank write bursts
system.physmem.perBankWrBursts::3               74816                       # Per bank write bursts
system.physmem.perBankWrBursts::4               75820                       # Per bank write bursts
system.physmem.perBankWrBursts::5               81492                       # Per bank write bursts
system.physmem.perBankWrBursts::6               75165                       # Per bank write bursts
system.physmem.perBankWrBursts::7               76353                       # Per bank write bursts
system.physmem.perBankWrBursts::8               74241                       # Per bank write bursts
system.physmem.perBankWrBursts::9               82215                       # Per bank write bursts
system.physmem.perBankWrBursts::10              79031                       # Per bank write bursts
system.physmem.perBankWrBursts::11              79534                       # Per bank write bursts
system.physmem.perBankWrBursts::12              72343                       # Per bank write bursts
system.physmem.perBankWrBursts::13              77292                       # Per bank write bursts
system.physmem.perBankWrBursts::14              76022                       # Per bank write bursts
system.physmem.perBankWrBursts::15              77340                       # Per bank write bursts
system.physmem.numRdRetry                           0                       # Number of times read queue was full causing retry
system.physmem.numWrRetry                          16                       # Number of times write queue was full causing retry
system.physmem.totGap                    51289287954000                       # Total gap between requests
system.physmem.readPktSize::0                       0                       # Read request sizes (log2)
system.physmem.readPktSize::1                       0                       # Read request sizes (log2)
system.physmem.readPktSize::2                       0                       # Read request sizes (log2)
system.physmem.readPktSize::3                      13                       # Read request sizes (log2)
system.physmem.readPktSize::4                       2                       # Read request sizes (log2)
system.physmem.readPktSize::5                       0                       # Read request sizes (log2)
system.physmem.readPktSize::6                 1441799                       # Read request sizes (log2)
system.physmem.writePktSize::0                      0                       # Write request sizes (log2)
system.physmem.writePktSize::1                      0                       # Write request sizes (log2)
system.physmem.writePktSize::2                      1                       # Write request sizes (log2)
system.physmem.writePktSize::3                   2572                       # Write request sizes (log2)
system.physmem.writePktSize::4                      0                       # Write request sizes (log2)
system.physmem.writePktSize::5                      0                       # Write request sizes (log2)
system.physmem.writePktSize::6                1223443                       # Write request sizes (log2)
system.physmem.rdQLenPdf::0                    661868                       # What read queue length does an incoming req see
system.physmem.rdQLenPdf::1                    399209                       # What read queue length does an incoming req see
system.physmem.rdQLenPdf::2                    215391                       # What read queue length does an incoming req see
system.physmem.rdQLenPdf::3                    158760                       # What read queue length does an incoming req see
system.physmem.rdQLenPdf::4                       856                       # What read queue length does an incoming req see
system.physmem.rdQLenPdf::5                       607                       # What read queue length does an incoming req see
system.physmem.rdQLenPdf::6                       570                       # What read queue length does an incoming req see
system.physmem.rdQLenPdf::7                      1170                       # What read queue length does an incoming req see
system.physmem.rdQLenPdf::8                       794                       # What read queue length does an incoming req see
system.physmem.rdQLenPdf::9                       390                       # What read queue length does an incoming req see
system.physmem.rdQLenPdf::10                      404                       # What read queue length does an incoming req see
system.physmem.rdQLenPdf::11                      203                       # What read queue length does an incoming req see
system.physmem.rdQLenPdf::12                      175                       # What read queue length does an incoming req see
system.physmem.rdQLenPdf::13                      141                       # What read queue length does an incoming req see
system.physmem.rdQLenPdf::14                      125                       # What read queue length does an incoming req see
system.physmem.rdQLenPdf::15                      123                       # What read queue length does an incoming req see
system.physmem.rdQLenPdf::16                      119                       # What read queue length does an incoming req see
system.physmem.rdQLenPdf::17                      109                       # What read queue length does an incoming req see
system.physmem.rdQLenPdf::18                       88                       # What read queue length does an incoming req see
system.physmem.rdQLenPdf::19                       60                       # What read queue length does an incoming req see
system.physmem.rdQLenPdf::20                        9                       # What read queue length does an incoming req see
system.physmem.rdQLenPdf::21                        2                       # What read queue length does an incoming req see
system.physmem.rdQLenPdf::22                        1                       # What read queue length does an incoming req see
system.physmem.rdQLenPdf::23                        0                       # What read queue length does an incoming req see
system.physmem.rdQLenPdf::24                        0                       # What read queue length does an incoming req see
system.physmem.rdQLenPdf::25                        0                       # What read queue length does an incoming req see
system.physmem.rdQLenPdf::26                        0                       # What read queue length does an incoming req see
system.physmem.rdQLenPdf::27                        0                       # What read queue length does an incoming req see
system.physmem.rdQLenPdf::28                        0                       # What read queue length does an incoming req see
system.physmem.rdQLenPdf::29                        0                       # What read queue length does an incoming req see
system.physmem.rdQLenPdf::30                        0                       # What read queue length does an incoming req see
system.physmem.rdQLenPdf::31                        0                       # What read queue length does an incoming req see
system.physmem.wrQLenPdf::0                       803                       # What write queue length does an incoming req see
system.physmem.wrQLenPdf::1                       791                       # What write queue length does an incoming req see
system.physmem.wrQLenPdf::2                       774                       # What write queue length does an incoming req see
system.physmem.wrQLenPdf::3                       763                       # What write queue length does an incoming req see
system.physmem.wrQLenPdf::4                       762                       # What write queue length does an incoming req see
system.physmem.wrQLenPdf::5                       757                       # What write queue length does an incoming req see
system.physmem.wrQLenPdf::6                       753                       # What write queue length does an incoming req see
system.physmem.wrQLenPdf::7                       751                       # What write queue length does an incoming req see
system.physmem.wrQLenPdf::8                       751                       # What write queue length does an incoming req see
system.physmem.wrQLenPdf::9                       750                       # What write queue length does an incoming req see
system.physmem.wrQLenPdf::10                      749                       # What write queue length does an incoming req see
system.physmem.wrQLenPdf::11                      755                       # What write queue length does an incoming req see
system.physmem.wrQLenPdf::12                      748                       # What write queue length does an incoming req see
system.physmem.wrQLenPdf::13                      746                       # What write queue length does an incoming req see
system.physmem.wrQLenPdf::14                      742                       # What write queue length does an incoming req see
system.physmem.wrQLenPdf::15                    13430                       # What write queue length does an incoming req see
system.physmem.wrQLenPdf::16                    15614                       # What write queue length does an incoming req see
system.physmem.wrQLenPdf::17                    29719                       # What write queue length does an incoming req see
system.physmem.wrQLenPdf::18                    43542                       # What write queue length does an incoming req see
system.physmem.wrQLenPdf::19                    61802                       # What write queue length does an incoming req see
system.physmem.wrQLenPdf::20                    73432                       # What write queue length does an incoming req see
system.physmem.wrQLenPdf::21                    74626                       # What write queue length does an incoming req see
system.physmem.wrQLenPdf::22                    75089                       # What write queue length does an incoming req see
system.physmem.wrQLenPdf::23                    77965                       # What write queue length does an incoming req see
system.physmem.wrQLenPdf::24                    77408                       # What write queue length does an incoming req see
system.physmem.wrQLenPdf::25                    77909                       # What write queue length does an incoming req see
system.physmem.wrQLenPdf::26                    84552                       # What write queue length does an incoming req see
system.physmem.wrQLenPdf::27                    79510                       # What write queue length does an incoming req see
system.physmem.wrQLenPdf::28                    90590                       # What write queue length does an incoming req see
system.physmem.wrQLenPdf::29                    97976                       # What write queue length does an incoming req see
system.physmem.wrQLenPdf::30                    76224                       # What write queue length does an incoming req see
system.physmem.wrQLenPdf::31                    79969                       # What write queue length does an incoming req see
system.physmem.wrQLenPdf::32                    72166                       # What write queue length does an incoming req see
system.physmem.wrQLenPdf::33                     1786                       # What write queue length does an incoming req see
system.physmem.wrQLenPdf::34                     1075                       # What write queue length does an incoming req see
system.physmem.wrQLenPdf::35                      750                       # What write queue length does an incoming req see
system.physmem.wrQLenPdf::36                      553                       # What write queue length does an incoming req see
system.physmem.wrQLenPdf::37                      587                       # What write queue length does an incoming req see
system.physmem.wrQLenPdf::38                      462                       # What write queue length does an incoming req see
system.physmem.wrQLenPdf::39                      418                       # What write queue length does an incoming req see
system.physmem.wrQLenPdf::40                      402                       # What write queue length does an incoming req see
system.physmem.wrQLenPdf::41                      331                       # What write queue length does an incoming req see
system.physmem.wrQLenPdf::42                      397                       # What write queue length does an incoming req see
system.physmem.wrQLenPdf::43                      339                       # What write queue length does an incoming req see
system.physmem.wrQLenPdf::44                      392                       # What write queue length does an incoming req see
system.physmem.wrQLenPdf::45                      274                       # What write queue length does an incoming req see
system.physmem.wrQLenPdf::46                      259                       # What write queue length does an incoming req see
system.physmem.wrQLenPdf::47                      318                       # What write queue length does an incoming req see
system.physmem.wrQLenPdf::48                      260                       # What write queue length does an incoming req see
system.physmem.wrQLenPdf::49                      329                       # What write queue length does an incoming req see
system.physmem.wrQLenPdf::50                      265                       # What write queue length does an incoming req see
system.physmem.wrQLenPdf::51                      208                       # What write queue length does an incoming req see
system.physmem.wrQLenPdf::52                      201                       # What write queue length does an incoming req see
system.physmem.wrQLenPdf::53                      229                       # What write queue length does an incoming req see
system.physmem.wrQLenPdf::54                      204                       # What write queue length does an incoming req see
system.physmem.wrQLenPdf::55                      165                       # What write queue length does an incoming req see
system.physmem.wrQLenPdf::56                      126                       # What write queue length does an incoming req see
system.physmem.wrQLenPdf::57                      112                       # What write queue length does an incoming req see
system.physmem.wrQLenPdf::58                       73                       # What write queue length does an incoming req see
system.physmem.wrQLenPdf::59                      109                       # What write queue length does an incoming req see
system.physmem.wrQLenPdf::60                       60                       # What write queue length does an incoming req see
system.physmem.wrQLenPdf::61                       80                       # What write queue length does an incoming req see
system.physmem.wrQLenPdf::62                       31                       # What write queue length does an incoming req see
system.physmem.wrQLenPdf::63                       57                       # What write queue length does an incoming req see
system.physmem.bytesPerActivate::samples       562786                       # Bytes accessed per row activation
system.physmem.bytesPerActivate::mean      303.056181                       # Bytes accessed per row activation
system.physmem.bytesPerActivate::gmean     174.751782                       # Bytes accessed per row activation
system.physmem.bytesPerActivate::stdev     331.834003                       # Bytes accessed per row activation
system.physmem.bytesPerActivate::0-127         224740     39.93%     39.93% # Bytes accessed per row activation
system.physmem.bytesPerActivate::128-255       128751     22.88%     62.81% # Bytes accessed per row activation
system.physmem.bytesPerActivate::256-383        55127      9.80%     72.61% # Bytes accessed per row activation
system.physmem.bytesPerActivate::384-511        26773      4.76%     77.36% # Bytes accessed per row activation
system.physmem.bytesPerActivate::512-639        23233      4.13%     81.49% # Bytes accessed per row activation
system.physmem.bytesPerActivate::640-767        12910      2.29%     83.79% # Bytes accessed per row activation
system.physmem.bytesPerActivate::768-895        13583      2.41%     86.20% # Bytes accessed per row activation
system.physmem.bytesPerActivate::896-1023         9009      1.60%     87.80% # Bytes accessed per row activation
system.physmem.bytesPerActivate::1024-1151        68660     12.20%    100.00% # Bytes accessed per row activation
system.physmem.bytesPerActivate::total         562786                       # Bytes accessed per row activation
system.physmem.rdPerTurnAround::samples         70105                       # Reads before turning the bus around for writes
system.physmem.rdPerTurnAround::mean        20.557036                       # Reads before turning the bus around for writes
system.physmem.rdPerTurnAround::stdev      230.792990                       # Reads before turning the bus around for writes
system.physmem.rdPerTurnAround::0-2047          70100     99.99%     99.99% # Reads before turning the bus around for writes
system.physmem.rdPerTurnAround::2048-4095            2      0.00%    100.00% # Reads before turning the bus around for writes
system.physmem.rdPerTurnAround::4096-6143            1      0.00%    100.00% # Reads before turning the bus around for writes
system.physmem.rdPerTurnAround::6144-8191            1      0.00%    100.00% # Reads before turning the bus around for writes
system.physmem.rdPerTurnAround::59392-61439            1      0.00%    100.00% # Reads before turning the bus around for writes
system.physmem.rdPerTurnAround::total           70105                       # Reads before turning the bus around for writes
system.physmem.wrPerTurnAround::samples         70105                       # Writes before turning the bus around for reads
system.physmem.wrPerTurnAround::mean        17.456187                       # Writes before turning the bus around for reads
system.physmem.wrPerTurnAround::gmean       16.912950                       # Writes before turning the bus around for reads
system.physmem.wrPerTurnAround::stdev        6.915591                       # Writes before turning the bus around for reads
system.physmem.wrPerTurnAround::0-3                54      0.08%      0.08% # Writes before turning the bus around for reads
system.physmem.wrPerTurnAround::4-7                21      0.03%      0.11% # Writes before turning the bus around for reads
system.physmem.wrPerTurnAround::8-11               10      0.01%      0.12% # Writes before turning the bus around for reads
system.physmem.wrPerTurnAround::12-15              61      0.09%      0.21% # Writes before turning the bus around for reads
system.physmem.wrPerTurnAround::16-19           66123     94.32%     94.53% # Writes before turning the bus around for reads
system.physmem.wrPerTurnAround::20-23            1498      2.14%     96.67% # Writes before turning the bus around for reads
system.physmem.wrPerTurnAround::24-27             202      0.29%     96.95% # Writes before turning the bus around for reads
system.physmem.wrPerTurnAround::28-31             498      0.71%     97.66% # Writes before turning the bus around for reads
system.physmem.wrPerTurnAround::32-35              79      0.11%     97.78% # Writes before turning the bus around for reads
system.physmem.wrPerTurnAround::36-39             334      0.48%     98.25% # Writes before turning the bus around for reads
system.physmem.wrPerTurnAround::40-43             212      0.30%     98.56% # Writes before turning the bus around for reads
system.physmem.wrPerTurnAround::44-47              35      0.05%     98.60% # Writes before turning the bus around for reads
system.physmem.wrPerTurnAround::48-51              78      0.11%     98.72% # Writes before turning the bus around for reads
system.physmem.wrPerTurnAround::52-55             130      0.19%     98.90% # Writes before turning the bus around for reads
system.physmem.wrPerTurnAround::56-59              31      0.04%     98.95% # Writes before turning the bus around for reads
system.physmem.wrPerTurnAround::60-63              40      0.06%     99.00% # Writes before turning the bus around for reads
system.physmem.wrPerTurnAround::64-67             445      0.63%     99.64% # Writes before turning the bus around for reads
system.physmem.wrPerTurnAround::68-71              33      0.05%     99.68% # Writes before turning the bus around for reads
system.physmem.wrPerTurnAround::72-75              29      0.04%     99.73% # Writes before turning the bus around for reads
system.physmem.wrPerTurnAround::76-79             119      0.17%     99.90% # Writes before turning the bus around for reads
system.physmem.wrPerTurnAround::80-83              11      0.02%     99.91% # Writes before turning the bus around for reads
system.physmem.wrPerTurnAround::84-87               2      0.00%     99.91% # Writes before turning the bus around for reads
system.physmem.wrPerTurnAround::92-95               2      0.00%     99.92% # Writes before turning the bus around for reads
system.physmem.wrPerTurnAround::96-99               2      0.00%     99.92% # Writes before turning the bus around for reads
system.physmem.wrPerTurnAround::100-103             5      0.01%     99.93% # Writes before turning the bus around for reads
system.physmem.wrPerTurnAround::108-111             1      0.00%     99.93% # Writes before turning the bus around for reads
system.physmem.wrPerTurnAround::112-115             1      0.00%     99.93% # Writes before turning the bus around for reads
system.physmem.wrPerTurnAround::120-123             2      0.00%     99.93% # Writes before turning the bus around for reads
system.physmem.wrPerTurnAround::124-127             2      0.00%     99.94% # Writes before turning the bus around for reads
system.physmem.wrPerTurnAround::128-131            25      0.04%     99.97% # Writes before turning the bus around for reads
system.physmem.wrPerTurnAround::132-135             2      0.00%     99.97% # Writes before turning the bus around for reads
system.physmem.wrPerTurnAround::136-139             1      0.00%     99.98% # Writes before turning the bus around for reads
system.physmem.wrPerTurnAround::140-143             3      0.00%     99.98% # Writes before turning the bus around for reads
system.physmem.wrPerTurnAround::152-155             3      0.00%     99.98% # Writes before turning the bus around for reads
system.physmem.wrPerTurnAround::156-159             4      0.01%     99.99% # Writes before turning the bus around for reads
system.physmem.wrPerTurnAround::164-167             3      0.00%     99.99% # Writes before turning the bus around for reads
system.physmem.wrPerTurnAround::168-171             2      0.00%    100.00% # Writes before turning the bus around for reads
system.physmem.wrPerTurnAround::180-183             1      0.00%    100.00% # Writes before turning the bus around for reads
system.physmem.wrPerTurnAround::184-187             1      0.00%    100.00% # Writes before turning the bus around for reads
system.physmem.wrPerTurnAround::total           70105                       # Writes before turning the bus around for reads
system.physmem.totQLat                    42013541205                       # Total ticks spent queuing
system.physmem.totMemAccLat               69035553705                       # Total ticks spent from burst creation until serviced by the DRAM
system.physmem.totBusLat                   7205870000                       # Total ticks spent in databus transfers
system.physmem.avgQLat                       29152.30                       # Average queueing delay per DRAM burst
system.physmem.avgBusLat                      5000.00                       # Average bus latency per DRAM burst
system.physmem.avgMemAccLat                  47902.30                       # Average memory access latency per DRAM burst
system.physmem.avgRdBW                           1.80                       # Average DRAM read bandwidth in MiByte/s
system.physmem.avgWrBW                           1.53                       # Average achieved write bandwidth in MiByte/s
system.physmem.avgRdBWSys                        1.80                       # Average system read bandwidth in MiByte/s
system.physmem.avgWrBWSys                        1.53                       # Average system write bandwidth in MiByte/s
system.physmem.peakBW                        12800.00                       # Theoretical peak bandwidth in MiByte/s
system.physmem.busUtil                           0.03                       # Data bus utilization in percentage
system.physmem.busUtilRead                       0.01                       # Data bus utilization in percentage for reads
system.physmem.busUtilWrite                      0.01                       # Data bus utilization in percentage for writes
system.physmem.avgRdQLen                         1.22                       # Average read queue length when enqueuing
system.physmem.avgWrQLen                         9.35                       # Average write queue length when enqueuing
system.physmem.readRowHits                    1183295                       # Number of row buffer hits during reads
system.physmem.writeRowHits                    918857                       # Number of row buffer hits during writes
system.physmem.readRowHitRate                   82.11                       # Row buffer hit rate for reads
system.physmem.writeRowHitRate                  75.08                       # Row buffer hit rate for writes
system.physmem.avgGap                     19225096.03                       # Average gap between requests
system.physmem.pageHitRate                      78.88                       # Row buffer hit rate, read and write combined
system.physmem_0.actEnergy                 2114615160                       # Energy for activate commands per rank (pJ)
system.physmem_0.preEnergy                 1153807875                       # Energy for precharge commands per rank (pJ)
system.physmem_0.readEnergy                5490264000                       # Energy for read commands per rank (pJ)
system.physmem_0.writeEnergy               3925247040                       # Energy for write commands per rank (pJ)
system.physmem_0.refreshEnergy           3349966598160                       # Energy for refresh commands per rank (pJ)
system.physmem_0.actBackEnergy           1237156507125                       # Energy for active background per rank (pJ)
system.physmem_0.preBackEnergy           29688344543250                       # Energy for precharge background per rank (pJ)
system.physmem_0.totalEnergy             34288151582610                       # Total energy per rank (pJ)
system.physmem_0.averagePower              668.524687                       # Core power per rank (mW)
system.physmem_0.memoryStateTime::IDLE   49388977684769                       # Time in different power states
system.physmem_0.memoryStateTime::REF    1712661860000                       # Time in different power states
system.physmem_0.memoryStateTime::PRE_PDN            0                       # Time in different power states
system.physmem_0.memoryStateTime::ACT    187649331731                       # Time in different power states
system.physmem_0.memoryStateTime::ACT_PDN            0                       # Time in different power states
system.physmem_1.actEnergy                 2140047000                       # Energy for activate commands per rank (pJ)
system.physmem_1.preEnergy                 1167684375                       # Energy for precharge commands per rank (pJ)
system.physmem_1.readEnergy                5750846400                       # Energy for read commands per rank (pJ)
system.physmem_1.writeEnergy               4004756640                       # Energy for write commands per rank (pJ)
system.physmem_1.refreshEnergy           3349966598160                       # Energy for refresh commands per rank (pJ)
system.physmem_1.actBackEnergy           1240738244055                       # Energy for active background per rank (pJ)
system.physmem_1.preBackEnergy           29685202677000                       # Energy for precharge background per rank (pJ)
system.physmem_1.totalEnergy             34288970853630                       # Total energy per rank (pJ)
system.physmem_1.averagePower              668.540660                       # Core power per rank (mW)
system.physmem_1.memoryStateTime::IDLE   49383704909692                       # Time in different power states
system.physmem_1.memoryStateTime::REF    1712661860000                       # Time in different power states
system.physmem_1.memoryStateTime::PRE_PDN            0                       # Time in different power states
system.physmem_1.memoryStateTime::ACT    192921720308                       # Time in different power states
system.physmem_1.memoryStateTime::ACT_PDN            0                       # Time in different power states
system.realview.nvmem.bytes_read::cpu0.inst         1088                       # Number of bytes read from this memory
system.realview.nvmem.bytes_read::cpu0.data           36                       # Number of bytes read from this memory
system.realview.nvmem.bytes_read::cpu1.inst         1024                       # Number of bytes read from this memory
system.realview.nvmem.bytes_read::total          2148                       # Number of bytes read from this memory
system.realview.nvmem.bytes_inst_read::cpu0.inst         1088                       # Number of instructions bytes read from this memory
system.realview.nvmem.bytes_inst_read::cpu1.inst         1024                       # Number of instructions bytes read from this memory
system.realview.nvmem.bytes_inst_read::total         2112                       # Number of instructions bytes read from this memory
system.realview.nvmem.num_reads::cpu0.inst           17                       # Number of read requests responded to by this memory
system.realview.nvmem.num_reads::cpu0.data            5                       # Number of read requests responded to by this memory
system.realview.nvmem.num_reads::cpu1.inst           16                       # Number of read requests responded to by this memory
system.realview.nvmem.num_reads::total             38                       # Number of read requests responded to by this memory
system.realview.nvmem.bw_read::cpu0.inst           21                       # Total read bandwidth from this memory (bytes/s)
system.realview.nvmem.bw_read::cpu0.data            1                       # Total read bandwidth from this memory (bytes/s)
system.realview.nvmem.bw_read::cpu1.inst           20                       # Total read bandwidth from this memory (bytes/s)
system.realview.nvmem.bw_read::total               42                       # Total read bandwidth from this memory (bytes/s)
system.realview.nvmem.bw_inst_read::cpu0.inst           21                       # Instruction read bandwidth from this memory (bytes/s)
system.realview.nvmem.bw_inst_read::cpu1.inst           20                       # Instruction read bandwidth from this memory (bytes/s)
system.realview.nvmem.bw_inst_read::total           41                       # Instruction read bandwidth from this memory (bytes/s)
system.realview.nvmem.bw_total::cpu0.inst           21                       # Total bandwidth to/from this memory (bytes/s)
system.realview.nvmem.bw_total::cpu0.data            1                       # Total bandwidth to/from this memory (bytes/s)
system.realview.nvmem.bw_total::cpu1.inst           20                       # Total bandwidth to/from this memory (bytes/s)
system.realview.nvmem.bw_total::total              42                       # Total bandwidth to/from this memory (bytes/s)
system.cf0.dma_read_full_pages                    122                       # Number of full page size DMA reads (not PRD).
system.cf0.dma_read_bytes                      499712                       # Number of bytes transfered via DMA reads (not PRD).
system.cf0.dma_read_txs                           122                       # Number of DMA read transactions (not PRD).
system.cf0.dma_write_full_pages                  1666                       # Number of full page size DMA writes.
system.cf0.dma_write_bytes                    6826496                       # Number of bytes transfered via DMA writes.
system.cf0.dma_write_txs                         1669                       # Number of DMA write transactions.
system.cpu0.branchPred.lookups              131510280                       # Number of BP lookups
system.cpu0.branchPred.condPredicted         89076411                       # Number of conditional branches predicted
system.cpu0.branchPred.condIncorrect          5754624                       # Number of conditional branches incorrect
system.cpu0.branchPred.BTBLookups            89205696                       # Number of BTB lookups
system.cpu0.branchPred.BTBHits               64088886                       # Number of BTB hits
system.cpu0.branchPred.BTBCorrect                   0                       # Number of correct BTB predictions (this stat may not work properly.
system.cpu0.branchPred.BTBHitPct            71.843939                       # BTB Hit Percentage
system.cpu0.branchPred.usedRAS               17216191                       # Number of times the RAS was used to get a target.
system.cpu0.branchPred.RASInCorrect            189076                       # Number of incorrect RAS predictions.
system.cpu_clk_domain.clock                       500                       # Clock period in ticks
system.cpu0.dstage2_mmu.stage2_tlb.walker.walks            0                       # Table walker walks requested
system.cpu0.dstage2_mmu.stage2_tlb.walker.walkRequestOrigin_Requested::Data            0                       # Table walker requests started/completed, data/inst
system.cpu0.dstage2_mmu.stage2_tlb.walker.walkRequestOrigin_Requested::Inst            0                       # Table walker requests started/completed, data/inst
system.cpu0.dstage2_mmu.stage2_tlb.walker.walkRequestOrigin_Requested::total            0                       # Table walker requests started/completed, data/inst
system.cpu0.dstage2_mmu.stage2_tlb.walker.walkRequestOrigin_Completed::Data            0                       # Table walker requests started/completed, data/inst
system.cpu0.dstage2_mmu.stage2_tlb.walker.walkRequestOrigin_Completed::Inst            0                       # Table walker requests started/completed, data/inst
system.cpu0.dstage2_mmu.stage2_tlb.walker.walkRequestOrigin_Completed::total            0                       # Table walker requests started/completed, data/inst
system.cpu0.dstage2_mmu.stage2_tlb.walker.walkRequestOrigin::total            0                       # Table walker requests started/completed, data/inst
system.cpu0.dstage2_mmu.stage2_tlb.inst_hits            0                       # ITB inst hits
system.cpu0.dstage2_mmu.stage2_tlb.inst_misses            0                       # ITB inst misses
system.cpu0.dstage2_mmu.stage2_tlb.read_hits            0                       # DTB read hits
system.cpu0.dstage2_mmu.stage2_tlb.read_misses            0                       # DTB read misses
system.cpu0.dstage2_mmu.stage2_tlb.write_hits            0                       # DTB write hits
system.cpu0.dstage2_mmu.stage2_tlb.write_misses            0                       # DTB write misses
system.cpu0.dstage2_mmu.stage2_tlb.flush_tlb            0                       # Number of times complete TLB was flushed
system.cpu0.dstage2_mmu.stage2_tlb.flush_tlb_mva            0                       # Number of times TLB was flushed by MVA
system.cpu0.dstage2_mmu.stage2_tlb.flush_tlb_mva_asid            0                       # Number of times TLB was flushed by MVA & ASID
system.cpu0.dstage2_mmu.stage2_tlb.flush_tlb_asid            0                       # Number of times TLB was flushed by ASID
system.cpu0.dstage2_mmu.stage2_tlb.flush_entries            0                       # Number of entries that have been flushed from TLB
system.cpu0.dstage2_mmu.stage2_tlb.align_faults            0                       # Number of TLB faults due to alignment restrictions
system.cpu0.dstage2_mmu.stage2_tlb.prefetch_faults            0                       # Number of TLB faults due to prefetch
system.cpu0.dstage2_mmu.stage2_tlb.domain_faults            0                       # Number of TLB faults due to domain restrictions
system.cpu0.dstage2_mmu.stage2_tlb.perms_faults            0                       # Number of TLB faults due to permissions restrictions
system.cpu0.dstage2_mmu.stage2_tlb.read_accesses            0                       # DTB read accesses
system.cpu0.dstage2_mmu.stage2_tlb.write_accesses            0                       # DTB write accesses
system.cpu0.dstage2_mmu.stage2_tlb.inst_accesses            0                       # ITB inst accesses
system.cpu0.dstage2_mmu.stage2_tlb.hits             0                       # DTB hits
system.cpu0.dstage2_mmu.stage2_tlb.misses            0                       # DTB misses
system.cpu0.dstage2_mmu.stage2_tlb.accesses            0                       # DTB accesses
system.cpu0.dtb.walker.walks                   879879                       # Table walker walks requested
system.cpu0.dtb.walker.walksLong               879879                       # Table walker walks initiated with long descriptors
system.cpu0.dtb.walker.walksLongTerminationLevel::Level2        16451                       # Level at which table walker walks with long descriptors terminate
system.cpu0.dtb.walker.walksLongTerminationLevel::Level3        88924                       # Level at which table walker walks with long descriptors terminate
system.cpu0.dtb.walker.walksSquashedBefore       539694                       # Table walks squashed before starting
system.cpu0.dtb.walker.walkWaitTime::samples       340185                       # Table walker wait (enqueue to first request) latency
system.cpu0.dtb.walker.walkWaitTime::mean  2660.496495                       # Table walker wait (enqueue to first request) latency
system.cpu0.dtb.walker.walkWaitTime::stdev 15843.329302                       # Table walker wait (enqueue to first request) latency
system.cpu0.dtb.walker.walkWaitTime::0-65535       337511     99.21%     99.21% # Table walker wait (enqueue to first request) latency
system.cpu0.dtb.walker.walkWaitTime::65536-131071         1400      0.41%     99.63% # Table walker wait (enqueue to first request) latency
system.cpu0.dtb.walker.walkWaitTime::131072-196607          868      0.26%     99.88% # Table walker wait (enqueue to first request) latency
system.cpu0.dtb.walker.walkWaitTime::196608-262143          160      0.05%     99.93% # Table walker wait (enqueue to first request) latency
system.cpu0.dtb.walker.walkWaitTime::262144-327679          148      0.04%     99.97% # Table walker wait (enqueue to first request) latency
system.cpu0.dtb.walker.walkWaitTime::327680-393215           35      0.01%     99.98% # Table walker wait (enqueue to first request) latency
system.cpu0.dtb.walker.walkWaitTime::393216-458751           25      0.01%     99.99% # Table walker wait (enqueue to first request) latency
system.cpu0.dtb.walker.walkWaitTime::458752-524287           32      0.01%    100.00% # Table walker wait (enqueue to first request) latency
system.cpu0.dtb.walker.walkWaitTime::524288-589823            2      0.00%    100.00% # Table walker wait (enqueue to first request) latency
system.cpu0.dtb.walker.walkWaitTime::589824-655359            1      0.00%    100.00% # Table walker wait (enqueue to first request) latency
system.cpu0.dtb.walker.walkWaitTime::655360-720895            2      0.00%    100.00% # Table walker wait (enqueue to first request) latency
system.cpu0.dtb.walker.walkWaitTime::720896-786431            1      0.00%    100.00% # Table walker wait (enqueue to first request) latency
system.cpu0.dtb.walker.walkWaitTime::total       340185                       # Table walker wait (enqueue to first request) latency
system.cpu0.dtb.walker.walkCompletionTime::samples       407005                       # Table walker service (enqueue to completion) latency
system.cpu0.dtb.walker.walkCompletionTime::mean 23314.236926                       # Table walker service (enqueue to completion) latency
system.cpu0.dtb.walker.walkCompletionTime::gmean 18617.801732                       # Table walker service (enqueue to completion) latency
system.cpu0.dtb.walker.walkCompletionTime::stdev 20825.488249                       # Table walker service (enqueue to completion) latency
system.cpu0.dtb.walker.walkCompletionTime::0-65535       397459     97.65%     97.65% # Table walker service (enqueue to completion) latency
system.cpu0.dtb.walker.walkCompletionTime::65536-131071         7042      1.73%     99.38% # Table walker service (enqueue to completion) latency
system.cpu0.dtb.walker.walkCompletionTime::131072-196607         1712      0.42%     99.81% # Table walker service (enqueue to completion) latency
system.cpu0.dtb.walker.walkCompletionTime::196608-262143          113      0.03%     99.83% # Table walker service (enqueue to completion) latency
system.cpu0.dtb.walker.walkCompletionTime::262144-327679          415      0.10%     99.94% # Table walker service (enqueue to completion) latency
system.cpu0.dtb.walker.walkCompletionTime::327680-393215          146      0.04%     99.97% # Table walker service (enqueue to completion) latency
system.cpu0.dtb.walker.walkCompletionTime::393216-458751           68      0.02%     99.99% # Table walker service (enqueue to completion) latency
system.cpu0.dtb.walker.walkCompletionTime::458752-524287           24      0.01%     99.99% # Table walker service (enqueue to completion) latency
system.cpu0.dtb.walker.walkCompletionTime::524288-589823           12      0.00%    100.00% # Table walker service (enqueue to completion) latency
system.cpu0.dtb.walker.walkCompletionTime::589824-655359           11      0.00%    100.00% # Table walker service (enqueue to completion) latency
system.cpu0.dtb.walker.walkCompletionTime::655360-720895            2      0.00%    100.00% # Table walker service (enqueue to completion) latency
system.cpu0.dtb.walker.walkCompletionTime::720896-786431            1      0.00%    100.00% # Table walker service (enqueue to completion) latency
system.cpu0.dtb.walker.walkCompletionTime::total       407005                       # Table walker service (enqueue to completion) latency
system.cpu0.dtb.walker.walksPending::samples 376382023716                       # Table walker pending requests distribution
system.cpu0.dtb.walker.walksPending::mean     0.109107                       # Table walker pending requests distribution
system.cpu0.dtb.walker.walksPending::stdev     0.663618                       # Table walker pending requests distribution
system.cpu0.dtb.walker.walksPending::0-3 375374134216     99.73%     99.73% # Table walker pending requests distribution
system.cpu0.dtb.walker.walksPending::4-7    555470000      0.15%     99.88% # Table walker pending requests distribution
system.cpu0.dtb.walker.walksPending::8-11    199772500      0.05%     99.93% # Table walker pending requests distribution
system.cpu0.dtb.walker.walksPending::12-15    117350500      0.03%     99.96% # Table walker pending requests distribution
system.cpu0.dtb.walker.walksPending::16-19     45444000      0.01%     99.98% # Table walker pending requests distribution
system.cpu0.dtb.walker.walksPending::20-23     24549500      0.01%     99.98% # Table walker pending requests distribution
system.cpu0.dtb.walker.walksPending::24-27     26272500      0.01%     99.99% # Table walker pending requests distribution
system.cpu0.dtb.walker.walksPending::28-31     32439000      0.01%    100.00% # Table walker pending requests distribution
system.cpu0.dtb.walker.walksPending::32-35      6175500      0.00%    100.00% # Table walker pending requests distribution
system.cpu0.dtb.walker.walksPending::36-39       322000      0.00%    100.00% # Table walker pending requests distribution
system.cpu0.dtb.walker.walksPending::40-43        41000      0.00%    100.00% # Table walker pending requests distribution
system.cpu0.dtb.walker.walksPending::44-47        35000      0.00%    100.00% # Table walker pending requests distribution
system.cpu0.dtb.walker.walksPending::48-51        18000      0.00%    100.00% # Table walker pending requests distribution
system.cpu0.dtb.walker.walksPending::total 376382023716                       # Table walker pending requests distribution
system.cpu0.dtb.walker.walkPageSizes::4K        88924     84.39%     84.39% # Table walker page sizes translated
system.cpu0.dtb.walker.walkPageSizes::2M        16451     15.61%    100.00% # Table walker page sizes translated
system.cpu0.dtb.walker.walkPageSizes::total       105375                       # Table walker page sizes translated
system.cpu0.dtb.walker.walkRequestOrigin_Requested::Data       879879                       # Table walker requests started/completed, data/inst
system.cpu0.dtb.walker.walkRequestOrigin_Requested::Inst            0                       # Table walker requests started/completed, data/inst
system.cpu0.dtb.walker.walkRequestOrigin_Requested::total       879879                       # Table walker requests started/completed, data/inst
system.cpu0.dtb.walker.walkRequestOrigin_Completed::Data       105375                       # Table walker requests started/completed, data/inst
system.cpu0.dtb.walker.walkRequestOrigin_Completed::Inst            0                       # Table walker requests started/completed, data/inst
system.cpu0.dtb.walker.walkRequestOrigin_Completed::total       105375                       # Table walker requests started/completed, data/inst
system.cpu0.dtb.walker.walkRequestOrigin::total       985254                       # Table walker requests started/completed, data/inst
system.cpu0.dtb.inst_hits                           0                       # ITB inst hits
system.cpu0.dtb.inst_misses                         0                       # ITB inst misses
system.cpu0.dtb.read_hits                   104450342                       # DTB read hits
system.cpu0.dtb.read_misses                    607388                       # DTB read misses
system.cpu0.dtb.write_hits                   80999803                       # DTB write hits
system.cpu0.dtb.write_misses                   272491                       # DTB write misses
system.cpu0.dtb.flush_tlb                        1103                       # Number of times complete TLB was flushed
system.cpu0.dtb.flush_tlb_mva                       0                       # Number of times TLB was flushed by MVA
system.cpu0.dtb.flush_tlb_mva_asid              21264                       # Number of times TLB was flushed by MVA & ASID
system.cpu0.dtb.flush_tlb_asid                    532                       # Number of times TLB was flushed by ASID
system.cpu0.dtb.flush_entries                   54933                       # Number of entries that have been flushed from TLB
system.cpu0.dtb.align_faults                      199                       # Number of TLB faults due to alignment restrictions
system.cpu0.dtb.prefetch_faults                  9612                       # Number of TLB faults due to prefetch
system.cpu0.dtb.domain_faults                       0                       # Number of TLB faults due to domain restrictions
system.cpu0.dtb.perms_faults                    55908                       # Number of TLB faults due to permissions restrictions
system.cpu0.dtb.read_accesses               105057730                       # DTB read accesses
system.cpu0.dtb.write_accesses               81272294                       # DTB write accesses
system.cpu0.dtb.inst_accesses                       0                       # ITB inst accesses
system.cpu0.dtb.hits                        185450145                       # DTB hits
system.cpu0.dtb.misses                         879879                       # DTB misses
system.cpu0.dtb.accesses                    186330024                       # DTB accesses
system.cpu0.istage2_mmu.stage2_tlb.walker.walks            0                       # Table walker walks requested
system.cpu0.istage2_mmu.stage2_tlb.walker.walkRequestOrigin_Requested::Data            0                       # Table walker requests started/completed, data/inst
system.cpu0.istage2_mmu.stage2_tlb.walker.walkRequestOrigin_Requested::Inst            0                       # Table walker requests started/completed, data/inst
system.cpu0.istage2_mmu.stage2_tlb.walker.walkRequestOrigin_Requested::total            0                       # Table walker requests started/completed, data/inst
system.cpu0.istage2_mmu.stage2_tlb.walker.walkRequestOrigin_Completed::Data            0                       # Table walker requests started/completed, data/inst
system.cpu0.istage2_mmu.stage2_tlb.walker.walkRequestOrigin_Completed::Inst            0                       # Table walker requests started/completed, data/inst
system.cpu0.istage2_mmu.stage2_tlb.walker.walkRequestOrigin_Completed::total            0                       # Table walker requests started/completed, data/inst
system.cpu0.istage2_mmu.stage2_tlb.walker.walkRequestOrigin::total            0                       # Table walker requests started/completed, data/inst
system.cpu0.istage2_mmu.stage2_tlb.inst_hits            0                       # ITB inst hits
system.cpu0.istage2_mmu.stage2_tlb.inst_misses            0                       # ITB inst misses
system.cpu0.istage2_mmu.stage2_tlb.read_hits            0                       # DTB read hits
system.cpu0.istage2_mmu.stage2_tlb.read_misses            0                       # DTB read misses
system.cpu0.istage2_mmu.stage2_tlb.write_hits            0                       # DTB write hits
system.cpu0.istage2_mmu.stage2_tlb.write_misses            0                       # DTB write misses
system.cpu0.istage2_mmu.stage2_tlb.flush_tlb            0                       # Number of times complete TLB was flushed
system.cpu0.istage2_mmu.stage2_tlb.flush_tlb_mva            0                       # Number of times TLB was flushed by MVA
system.cpu0.istage2_mmu.stage2_tlb.flush_tlb_mva_asid            0                       # Number of times TLB was flushed by MVA & ASID
system.cpu0.istage2_mmu.stage2_tlb.flush_tlb_asid            0                       # Number of times TLB was flushed by ASID
system.cpu0.istage2_mmu.stage2_tlb.flush_entries            0                       # Number of entries that have been flushed from TLB
system.cpu0.istage2_mmu.stage2_tlb.align_faults            0                       # Number of TLB faults due to alignment restrictions
system.cpu0.istage2_mmu.stage2_tlb.prefetch_faults            0                       # Number of TLB faults due to prefetch
system.cpu0.istage2_mmu.stage2_tlb.domain_faults            0                       # Number of TLB faults due to domain restrictions
system.cpu0.istage2_mmu.stage2_tlb.perms_faults            0                       # Number of TLB faults due to permissions restrictions
system.cpu0.istage2_mmu.stage2_tlb.read_accesses            0                       # DTB read accesses
system.cpu0.istage2_mmu.stage2_tlb.write_accesses            0                       # DTB write accesses
system.cpu0.istage2_mmu.stage2_tlb.inst_accesses            0                       # ITB inst accesses
system.cpu0.istage2_mmu.stage2_tlb.hits             0                       # DTB hits
system.cpu0.istage2_mmu.stage2_tlb.misses            0                       # DTB misses
system.cpu0.istage2_mmu.stage2_tlb.accesses            0                       # DTB accesses
system.cpu0.itb.walker.walks                   105425                       # Table walker walks requested
system.cpu0.itb.walker.walksLong               105425                       # Table walker walks initiated with long descriptors
system.cpu0.itb.walker.walksLongTerminationLevel::Level2         3033                       # Level at which table walker walks with long descriptors terminate
system.cpu0.itb.walker.walksLongTerminationLevel::Level3        71538                       # Level at which table walker walks with long descriptors terminate
system.cpu0.itb.walker.walksSquashedBefore        14522                       # Table walks squashed before starting
system.cpu0.itb.walker.walkWaitTime::samples        90903                       # Table walker wait (enqueue to first request) latency
system.cpu0.itb.walker.walkWaitTime::mean  1916.366897                       # Table walker wait (enqueue to first request) latency
system.cpu0.itb.walker.walkWaitTime::stdev 12628.127488                       # Table walker wait (enqueue to first request) latency
system.cpu0.itb.walker.walkWaitTime::0-32767        89834     98.82%     98.82% # Table walker wait (enqueue to first request) latency
system.cpu0.itb.walker.walkWaitTime::32768-65535          539      0.59%     99.42% # Table walker wait (enqueue to first request) latency
system.cpu0.itb.walker.walkWaitTime::65536-98303           99      0.11%     99.53% # Table walker wait (enqueue to first request) latency
system.cpu0.itb.walker.walkWaitTime::98304-131071          130      0.14%     99.67% # Table walker wait (enqueue to first request) latency
system.cpu0.itb.walker.walkWaitTime::131072-163839          200      0.22%     99.89% # Table walker wait (enqueue to first request) latency
system.cpu0.itb.walker.walkWaitTime::163840-196607           51      0.06%     99.94% # Table walker wait (enqueue to first request) latency
system.cpu0.itb.walker.walkWaitTime::196608-229375           18      0.02%     99.96% # Table walker wait (enqueue to first request) latency
system.cpu0.itb.walker.walkWaitTime::229376-262143            4      0.00%     99.97% # Table walker wait (enqueue to first request) latency
system.cpu0.itb.walker.walkWaitTime::262144-294911           13      0.01%     99.98% # Table walker wait (enqueue to first request) latency
system.cpu0.itb.walker.walkWaitTime::294912-327679            5      0.01%     99.99% # Table walker wait (enqueue to first request) latency
system.cpu0.itb.walker.walkWaitTime::327680-360447            1      0.00%     99.99% # Table walker wait (enqueue to first request) latency
system.cpu0.itb.walker.walkWaitTime::360448-393215            4      0.00%     99.99% # Table walker wait (enqueue to first request) latency
system.cpu0.itb.walker.walkWaitTime::393216-425983            3      0.00%    100.00% # Table walker wait (enqueue to first request) latency
system.cpu0.itb.walker.walkWaitTime::458752-491519            1      0.00%    100.00% # Table walker wait (enqueue to first request) latency
system.cpu0.itb.walker.walkWaitTime::491520-524287            1      0.00%    100.00% # Table walker wait (enqueue to first request) latency
system.cpu0.itb.walker.walkWaitTime::total        90903                       # Table walker wait (enqueue to first request) latency
system.cpu0.itb.walker.walkCompletionTime::samples        89093                       # Table walker service (enqueue to completion) latency
system.cpu0.itb.walker.walkCompletionTime::mean 29737.628096                       # Table walker service (enqueue to completion) latency
system.cpu0.itb.walker.walkCompletionTime::gmean 24673.282560                       # Table walker service (enqueue to completion) latency
system.cpu0.itb.walker.walkCompletionTime::stdev 24049.122605                       # Table walker service (enqueue to completion) latency
system.cpu0.itb.walker.walkCompletionTime::0-65535        86936     97.58%     97.58% # Table walker service (enqueue to completion) latency
system.cpu0.itb.walker.walkCompletionTime::65536-131071          600      0.67%     98.25% # Table walker service (enqueue to completion) latency
system.cpu0.itb.walker.walkCompletionTime::131072-196607         1294      1.45%     99.70% # Table walker service (enqueue to completion) latency
system.cpu0.itb.walker.walkCompletionTime::196608-262143           93      0.10%     99.81% # Table walker service (enqueue to completion) latency
system.cpu0.itb.walker.walkCompletionTime::262144-327679          133      0.15%     99.96% # Table walker service (enqueue to completion) latency
system.cpu0.itb.walker.walkCompletionTime::327680-393215           25      0.03%     99.99% # Table walker service (enqueue to completion) latency
system.cpu0.itb.walker.walkCompletionTime::393216-458751            7      0.01%     99.99% # Table walker service (enqueue to completion) latency
system.cpu0.itb.walker.walkCompletionTime::458752-524287            2      0.00%    100.00% # Table walker service (enqueue to completion) latency
system.cpu0.itb.walker.walkCompletionTime::524288-589823            2      0.00%    100.00% # Table walker service (enqueue to completion) latency
system.cpu0.itb.walker.walkCompletionTime::720896-786431            1      0.00%    100.00% # Table walker service (enqueue to completion) latency
system.cpu0.itb.walker.walkCompletionTime::total        89093                       # Table walker service (enqueue to completion) latency
system.cpu0.itb.walker.walksPending::samples 303340156184                       # Table walker pending requests distribution
system.cpu0.itb.walker.walksPending::mean     1.819271                       # Table walker pending requests distribution
system.cpu0.itb.walker.walksPending::0   -248434536268    -81.90%    -81.90% # Table walker pending requests distribution
system.cpu0.itb.walker.walksPending::1   551700406452    181.88%     99.98% # Table walker pending requests distribution
system.cpu0.itb.walker.walksPending::2       66884500      0.02%    100.00% # Table walker pending requests distribution
system.cpu0.itb.walker.walksPending::3        6271500      0.00%    100.00% # Table walker pending requests distribution
system.cpu0.itb.walker.walksPending::4         916000      0.00%    100.00% # Table walker pending requests distribution
system.cpu0.itb.walker.walksPending::5          53500      0.00%    100.00% # Table walker pending requests distribution
system.cpu0.itb.walker.walksPending::6         160500      0.00%    100.00% # Table walker pending requests distribution
system.cpu0.itb.walker.walksPending::total 303340156184                       # Table walker pending requests distribution
system.cpu0.itb.walker.walkPageSizes::4K        71538     95.93%     95.93% # Table walker page sizes translated
system.cpu0.itb.walker.walkPageSizes::2M         3033      4.07%    100.00% # Table walker page sizes translated
system.cpu0.itb.walker.walkPageSizes::total        74571                       # Table walker page sizes translated
system.cpu0.itb.walker.walkRequestOrigin_Requested::Data            0                       # Table walker requests started/completed, data/inst
system.cpu0.itb.walker.walkRequestOrigin_Requested::Inst       105425                       # Table walker requests started/completed, data/inst
system.cpu0.itb.walker.walkRequestOrigin_Requested::total       105425                       # Table walker requests started/completed, data/inst
system.cpu0.itb.walker.walkRequestOrigin_Completed::Data            0                       # Table walker requests started/completed, data/inst
system.cpu0.itb.walker.walkRequestOrigin_Completed::Inst        74571                       # Table walker requests started/completed, data/inst
system.cpu0.itb.walker.walkRequestOrigin_Completed::total        74571                       # Table walker requests started/completed, data/inst
system.cpu0.itb.walker.walkRequestOrigin::total       179996                       # Table walker requests started/completed, data/inst
system.cpu0.itb.inst_hits                    94464352                       # ITB inst hits
system.cpu0.itb.inst_misses                    105425                       # ITB inst misses
system.cpu0.itb.read_hits                           0                       # DTB read hits
system.cpu0.itb.read_misses                         0                       # DTB read misses
system.cpu0.itb.write_hits                          0                       # DTB write hits
system.cpu0.itb.write_misses                        0                       # DTB write misses
system.cpu0.itb.flush_tlb                        1103                       # Number of times complete TLB was flushed
system.cpu0.itb.flush_tlb_mva                       0                       # Number of times TLB was flushed by MVA
system.cpu0.itb.flush_tlb_mva_asid              21264                       # Number of times TLB was flushed by MVA & ASID
system.cpu0.itb.flush_tlb_asid                    532                       # Number of times TLB was flushed by ASID
system.cpu0.itb.flush_entries                   41067                       # Number of entries that have been flushed from TLB
system.cpu0.itb.align_faults                        0                       # Number of TLB faults due to alignment restrictions
system.cpu0.itb.prefetch_faults                     0                       # Number of TLB faults due to prefetch
system.cpu0.itb.domain_faults                       0                       # Number of TLB faults due to domain restrictions
system.cpu0.itb.perms_faults                   204534                       # Number of TLB faults due to permissions restrictions
system.cpu0.itb.read_accesses                       0                       # DTB read accesses
system.cpu0.itb.write_accesses                      0                       # DTB write accesses
system.cpu0.itb.inst_accesses                94569777                       # ITB inst accesses
system.cpu0.itb.hits                         94464352                       # DTB hits
system.cpu0.itb.misses                         105425                       # DTB misses
system.cpu0.itb.accesses                     94569777                       # DTB accesses
system.cpu0.numCycles                       693727147                       # number of cpu cycles simulated
system.cpu0.numWorkItemsStarted                     0                       # number of work items this cpu started
system.cpu0.numWorkItemsCompleted                   0                       # number of work items this cpu completed
system.cpu0.fetch.icacheStallCycles         245689923                       # Number of cycles fetch is stalled on an Icache miss
system.cpu0.fetch.Insts                     583659918                       # Number of instructions fetch has processed
system.cpu0.fetch.Branches                  131510280                       # Number of branches that fetch encountered
system.cpu0.fetch.predictedBranches          81305077                       # Number of branches that fetch has predicted taken
system.cpu0.fetch.Cycles                    403973689                       # Number of cycles fetch has run and was not squashing or blocked
system.cpu0.fetch.SquashCycles               13146062                       # Number of cycles fetch has spent squashing
system.cpu0.fetch.TlbCycles                   2696063                       # Number of cycles fetch has spent waiting for tlb
system.cpu0.fetch.MiscStallCycles               24792                       # Number of cycles fetch has spent waiting on interrupts, or bad addresses, or out of MSHRs
system.cpu0.fetch.PendingDrainCycles             6132                       # Number of cycles fetch has spent waiting on pipes to drain
system.cpu0.fetch.PendingTrapStallCycles      5442737                       # Number of stall cycles due to pending traps
system.cpu0.fetch.PendingQuiesceStallCycles       182065                       # Number of stall cycles due to pending quiesce instructions
system.cpu0.fetch.IcacheWaitRetryStallCycles         4382                       # Number of stall cycles due to full MSHR
system.cpu0.fetch.CacheLines                 94242396                       # Number of cache lines fetched
system.cpu0.fetch.IcacheSquashes              3550844                       # Number of outstanding Icache misses that were squashed
system.cpu0.fetch.ItlbSquashes                  42244                       # Number of outstanding ITLB misses that were squashed
system.cpu0.fetch.rateDist::samples         664592540                       # Number of instructions fetched each cycle (Total)
system.cpu0.fetch.rateDist::mean             1.028282                       # Number of instructions fetched each cycle (Total)
system.cpu0.fetch.rateDist::stdev            2.281038                       # Number of instructions fetched each cycle (Total)
system.cpu0.fetch.rateDist::underflows              0      0.00%      0.00% # Number of instructions fetched each cycle (Total)
system.cpu0.fetch.rateDist::0               520383096     78.30%     78.30% # Number of instructions fetched each cycle (Total)
system.cpu0.fetch.rateDist::1                18093254      2.72%     81.02% # Number of instructions fetched each cycle (Total)
system.cpu0.fetch.rateDist::2                18296207      2.75%     83.78% # Number of instructions fetched each cycle (Total)
system.cpu0.fetch.rateDist::3                13332643      2.01%     85.78% # Number of instructions fetched each cycle (Total)
system.cpu0.fetch.rateDist::4                28010014      4.21%     90.00% # Number of instructions fetched each cycle (Total)
system.cpu0.fetch.rateDist::5                 9092439      1.37%     91.37% # Number of instructions fetched each cycle (Total)
system.cpu0.fetch.rateDist::6                 9727305      1.46%     92.83% # Number of instructions fetched each cycle (Total)
system.cpu0.fetch.rateDist::7                 8422108      1.27%     94.10% # Number of instructions fetched each cycle (Total)
system.cpu0.fetch.rateDist::8                39235474      5.90%    100.00% # Number of instructions fetched each cycle (Total)
system.cpu0.fetch.rateDist::overflows               0      0.00%    100.00% # Number of instructions fetched each cycle (Total)
system.cpu0.fetch.rateDist::min_value               0                       # Number of instructions fetched each cycle (Total)
system.cpu0.fetch.rateDist::max_value               8                       # Number of instructions fetched each cycle (Total)
system.cpu0.fetch.rateDist::total           664592540                       # Number of instructions fetched each cycle (Total)
system.cpu0.fetch.branchRate                 0.189571                       # Number of branch fetches per cycle
system.cpu0.fetch.rate                       0.841339                       # Number of inst fetches per cycle
system.cpu0.decode.IdleCycles               199631749                       # Number of cycles decode is idle
system.cpu0.decode.BlockedCycles            341256701                       # Number of cycles decode is blocked
system.cpu0.decode.RunCycles                105213142                       # Number of cycles decode is running
system.cpu0.decode.UnblockCycles             13320667                       # Number of cycles decode is unblocking
[...]
system.l2c.overall_avg_mshr_uncacheable_latency::cpu1.inst 112145.296040                       # average overall mshr uncacheable latency
system.l2c.overall_avg_mshr_uncacheable_latency::cpu1.data 160097.200775                       # average overall mshr uncacheable latency
system.l2c.overall_avg_mshr_uncacheable_latency::total 149626.989605                       # average overall mshr uncacheable latency
system.l2c.no_allocate_misses                       0                       # Number of misses that were no-allocate
system.membus.trans_dist::ReadReq               54323                       # Transaction distribution
system.membus.trans_dist::ReadResp             463989                       # Transaction distribution
system.membus.trans_dist::WriteReq              33696                       # Transaction distribution
system.membus.trans_dist::WriteResp             33696                       # Transaction distribution
system.membus.trans_dist::Writeback           1223443                       # Transaction distribution
system.membus.trans_dist::CleanEvict           213592                       # Transaction distribution
system.membus.trans_dist::UpgradeReq            36616                       # Transaction distribution
system.membus.trans_dist::SCUpgradeReq              2                       # Transaction distribution
system.membus.trans_dist::UpgradeResp           36618                       # Transaction distribution
system.membus.trans_dist::ReadExReq           1014298                       # Transaction distribution
system.membus.trans_dist::ReadExResp          1014298                       # Transaction distribution
system.membus.trans_dist::ReadSharedReq        409666                       # Transaction distribution
system.membus.trans_dist::InvalidateReq        106664                       # Transaction distribution
system.membus.trans_dist::InvalidateResp       106664                       # Transaction distribution
system.membus.pkt_count_system.l2c.mem_side::system.bridge.slave       122704                       # Packet count per connected master and slave (bytes)
system.membus.pkt_count_system.l2c.mem_side::system.realview.nvmem.port           76                       # Packet count per connected master and slave (bytes)
system.membus.pkt_count_system.l2c.mem_side::system.realview.gic.pio         6856                       # Packet count per connected master and slave (bytes)
system.membus.pkt_count_system.l2c.mem_side::system.physmem.port      4273089                       # Packet count per connected master and slave (bytes)
system.membus.pkt_count_system.l2c.mem_side::total      4402725                       # Packet count per connected master and slave (bytes)
system.membus.pkt_count_system.iocache.mem_side::system.physmem.port       342054                       # Packet count per connected master and slave (bytes)
system.membus.pkt_count_system.iocache.mem_side::total       342054                       # Packet count per connected master and slave (bytes)
system.membus.pkt_count::total                4744779                       # Packet count per connected master and slave (bytes)
system.membus.pkt_size_system.l2c.mem_side::system.bridge.slave       155834                       # Cumulative packet size per connected master and slave (bytes)
system.membus.pkt_size_system.l2c.mem_side::system.realview.nvmem.port         2148                       # Cumulative packet size per connected master and slave (bytes)
system.membus.pkt_size_system.l2c.mem_side::system.realview.gic.pio        13712                       # Cumulative packet size per connected master and slave (bytes)
system.membus.pkt_size_system.l2c.mem_side::system.physmem.port    163341292                       # Cumulative packet size per connected master and slave (bytes)
system.membus.pkt_size_system.l2c.mem_side::total    163512986                       # Cumulative packet size per connected master and slave (bytes)
system.membus.pkt_size_system.iocache.mem_side::system.physmem.port      7254912                       # Cumulative packet size per connected master and slave (bytes)
system.membus.pkt_size_system.iocache.mem_side::total      7254912                       # Cumulative packet size per connected master and slave (bytes)
system.membus.pkt_size::total               170767898                       # Cumulative packet size per connected master and slave (bytes)
system.membus.snoops                             2786                       # Total snoops (count)
system.membus.snoop_fanout::samples           3094626                       # Request fanout histogram
system.membus.snoop_fanout::mean                    1                       # Request fanout histogram
system.membus.snoop_fanout::stdev                   0                       # Request fanout histogram
system.membus.snoop_fanout::underflows              0      0.00%      0.00% # Request fanout histogram
system.membus.snoop_fanout::0                       0      0.00%      0.00% # Request fanout histogram
system.membus.snoop_fanout::1                 3094626    100.00%    100.00% # Request fanout histogram
system.membus.snoop_fanout::2                       0      0.00%    100.00% # Request fanout histogram
system.membus.snoop_fanout::overflows               0      0.00%    100.00% # Request fanout histogram
system.membus.snoop_fanout::min_value               1                       # Request fanout histogram
system.membus.snoop_fanout::max_value               1                       # Request fanout histogram
system.membus.snoop_fanout::total             3094626                       # Request fanout histogram
system.membus.reqLayer0.occupancy           113794499                       # Layer occupancy (ticks)
system.membus.reqLayer0.utilization               0.0                       # Layer utilization (%)
system.membus.reqLayer1.occupancy               50156                       # Layer occupancy (ticks)
system.membus.reqLayer1.utilization               0.0                       # Layer utilization (%)
system.membus.reqLayer2.occupancy             5590500                       # Layer occupancy (ticks)
system.membus.reqLayer2.utilization               0.0                       # Layer utilization (%)
system.membus.reqLayer5.occupancy          8281023093                       # Layer occupancy (ticks)
system.membus.reqLayer5.utilization               0.0                       # Layer utilization (%)
system.membus.respLayer2.occupancy         7728395442                       # Layer occupancy (ticks)
system.membus.respLayer2.utilization              0.0                       # Layer utilization (%)
system.membus.respLayer3.occupancy          228381503                       # Layer occupancy (ticks)
system.membus.respLayer3.utilization              0.0                       # Layer utilization (%)
system.realview.ethernet.txBytes                  966                       # Bytes Transmitted
system.realview.ethernet.txPackets                  3                       # Number of Packets Transmitted
system.realview.ethernet.txIpChecksums              0                       # Number of tx IP Checksums done by device
system.realview.ethernet.txTcpChecksums             0                       # Number of tx TCP Checksums done by device
system.realview.ethernet.txUdpChecksums             0                       # Number of tx UDP Checksums done by device
system.realview.ethernet.descDMAReads               0                       # Number of descriptors the device read w/ DMA
system.realview.ethernet.descDMAWrites              0                       # Number of descriptors the device wrote w/ DMA
system.realview.ethernet.descDmaReadBytes            0                       # number of descriptor bytes read w/ DMA
system.realview.ethernet.descDmaWriteBytes            0                       # number of descriptor bytes write w/ DMA
system.realview.ethernet.totBandwidth             151                       # Total Bandwidth (bits/s)
system.realview.ethernet.totPackets                 3                       # Total Packets
system.realview.ethernet.totBytes                 966                       # Total Bytes
system.realview.ethernet.totPPS                     0                       # Total Tranmission Rate (packets/s)
system.realview.ethernet.txBandwidth              151                       # Transmit Bandwidth (bits/s)
system.realview.ethernet.txPPS                      0                       # Packet Tranmission Rate (packets/s)
system.realview.ethernet.postedSwi                  0                       # number of software interrupts posted to CPU
system.realview.ethernet.coalescedSwi               0                       # average number of Swi's coalesced into each post
system.realview.ethernet.totalSwi                   0                       # total number of Swi written to ISR
system.realview.ethernet.postedRxIdle               0                       # number of rxIdle interrupts posted to CPU
system.realview.ethernet.coalescedRxIdle            0                       # average number of RxIdle's coalesced into each post
system.realview.ethernet.totalRxIdle                0                       # total number of RxIdle written to ISR
system.realview.ethernet.postedRxOk                 0                       # number of RxOk interrupts posted to CPU
system.realview.ethernet.coalescedRxOk              0                       # average number of RxOk's coalesced into each post
system.realview.ethernet.totalRxOk                  0                       # total number of RxOk written to ISR
system.realview.ethernet.postedRxDesc               0                       # number of RxDesc interrupts posted to CPU
system.realview.ethernet.coalescedRxDesc            0                       # average number of RxDesc's coalesced into each post
system.realview.ethernet.totalRxDesc                0                       # total number of RxDesc written to ISR
system.realview.ethernet.postedTxOk                 0                       # number of TxOk interrupts posted to CPU
system.realview.ethernet.coalescedTxOk              0                       # average number of TxOk's coalesced into each post
system.realview.ethernet.totalTxOk                  0                       # total number of TxOk written to ISR
system.realview.ethernet.postedTxIdle               0                       # number of TxIdle interrupts posted to CPU
system.realview.ethernet.coalescedTxIdle            0                       # average number of TxIdle's coalesced into each post
system.realview.ethernet.totalTxIdle                0                       # total number of TxIdle written to ISR
system.realview.ethernet.postedTxDesc               0                       # number of TxDesc interrupts posted to CPU
system.realview.ethernet.coalescedTxDesc            0                       # average number of TxDesc's coalesced into each post
system.realview.ethernet.totalTxDesc                0                       # total number of TxDesc written to ISR
system.realview.ethernet.postedRxOrn                0                       # number of RxOrn posted to CPU
system.realview.ethernet.coalescedRxOrn             0                       # average number of RxOrn's coalesced into each post
system.realview.ethernet.totalRxOrn                 0                       # total number of RxOrn written to ISR
system.realview.ethernet.coalescedTotal             0                       # average number of interrupts coalesced into each post
system.realview.ethernet.postedInterrupts           18                       # number of posts to CPU
system.realview.ethernet.droppedPackets             0                       # number of packets dropped
system.realview.realview_io.osc_pxl.clock        42105                       # Clock period in ticks
system.realview.realview_io.osc_clcd.clock        42105                       # Clock period in ticks
system.realview.realview_io.osc_cpu.clock        16667                       # Clock period in ticks
system.realview.realview_io.osc_ddr.clock        25000                       # Clock period in ticks
system.realview.realview_io.osc_hsbm.clock        25000                       # Clock period in ticks
system.realview.realview_io.osc_mcc.clock        20000                       # Clock period in ticks
system.realview.realview_io.osc_peripheral.clock        41667                       # Clock period in ticks
system.realview.realview_io.osc_smb.clock        20000                       # Clock period in ticks
system.realview.realview_io.osc_sys.clock        16667                       # Clock period in ticks
system.realview.realview_io.osc_system_bus.clock        41667                       # Clock period in ticks
system.toL2Bus.snoop_filter.tot_requests     53734904                       # Total number of requests made to the snoop filter.
system.toL2Bus.snoop_filter.hit_single_requests     27297777                       # Number of requests hitting in the snoop filter with a single holder of the requested data.
system.toL2Bus.snoop_filter.hit_multi_requests         4493                       # Number of requests hitting in the snoop filter with multiple (>1) holders of the requested data.
system.toL2Bus.snoop_filter.tot_snoops           2110                       # Total number of snoops made to the snoop filter.
system.toL2Bus.snoop_filter.hit_single_snoops         2110                       # Number of snoops hitting in the snoop filter with a single holder of the requested data.
system.toL2Bus.snoop_filter.hit_multi_snoops            0                       # Number of snoops hitting in the snoop filter with multiple (>1) holders of the requested data.
system.toL2Bus.trans_dist::ReadReq            2021207                       # Transaction distribution
system.toL2Bus.trans_dist::ReadResp          25124422                       # Transaction distribution
system.toL2Bus.trans_dist::WriteReq             33696                       # Transaction distribution
system.toL2Bus.trans_dist::WriteResp            33696                       # Transaction distribution
system.toL2Bus.trans_dist::Writeback          9226509                       # Transaction distribution
system.toL2Bus.trans_dist::CleanEvict        18644458                       # Transaction distribution
system.toL2Bus.trans_dist::UpgradeReq           45658                       # Transaction distribution
system.toL2Bus.trans_dist::SCUpgradeReq            14                       # Transaction distribution
system.toL2Bus.trans_dist::UpgradeResp          45672                       # Transaction distribution
system.toL2Bus.trans_dist::ReadExReq          2103809                       # Transaction distribution
system.toL2Bus.trans_dist::ReadExResp         2103809                       # Transaction distribution
system.toL2Bus.trans_dist::ReadCleanReq      15994542                       # Transaction distribution
system.toL2Bus.trans_dist::ReadSharedReq      7116774                       # Transaction distribution
system.toL2Bus.trans_dist::InvalidateReq      1337512                       # Transaction distribution
system.toL2Bus.trans_dist::InvalidateResp      1230848                       # Transaction distribution
system.toL2Bus.pkt_count_system.cpu0.icache.mem_side::system.l2c.cpu_side     48020569                       # Packet count per connected master and slave (bytes)
system.toL2Bus.pkt_count_system.cpu0.dcache.mem_side::system.l2c.cpu_side     31553133                       # Packet count per connected master and slave (bytes)
system.toL2Bus.pkt_count_system.cpu0.itb.walker.dma::system.l2c.cpu_side       908522                       # Packet count per connected master and slave (bytes)
system.toL2Bus.pkt_count_system.cpu0.dtb.walker.dma::system.l2c.cpu_side      2486966                       # Packet count per connected master and slave (bytes)
system.toL2Bus.pkt_count::total              82969190                       # Packet count per connected master and slave (bytes)
system.toL2Bus.pkt_size_system.cpu0.icache.mem_side::system.l2c.cpu_side   1024954048                       # Cumulative packet size per connected master and slave (bytes)
system.toL2Bus.pkt_size_system.cpu0.dcache.mem_side::system.l2c.cpu_side   1101984346                       # Cumulative packet size per connected master and slave (bytes)
system.toL2Bus.pkt_size_system.cpu0.itb.walker.dma::system.l2c.cpu_side      3065144                       # Cumulative packet size per connected master and slave (bytes)
system.toL2Bus.pkt_size_system.cpu0.dtb.walker.dma::system.l2c.cpu_side      8363688                       # Cumulative packet size per connected master and slave (bytes)
system.toL2Bus.pkt_size::total             2138367226                       # Cumulative packet size per connected master and slave (bytes)
system.toL2Bus.snoops                         2094185                       # Total snoops (count)
system.toL2Bus.snoop_fanout::samples         56528569                       # Request fanout histogram
system.toL2Bus.snoop_fanout::mean            0.014634                       # Request fanout histogram
system.toL2Bus.snoop_fanout::stdev           0.120081                       # Request fanout histogram
system.toL2Bus.snoop_fanout::underflows             0      0.00%      0.00% # Request fanout histogram
system.toL2Bus.snoop_fanout::0               55701347     98.54%     98.54% # Request fanout histogram
system.toL2Bus.snoop_fanout::1                 827222      1.46%    100.00% # Request fanout histogram
system.toL2Bus.snoop_fanout::2                      0      0.00%    100.00% # Request fanout histogram
system.toL2Bus.snoop_fanout::overflows              0      0.00%    100.00% # Request fanout histogram
system.toL2Bus.snoop_fanout::min_value              0                       # Request fanout histogram
system.toL2Bus.snoop_fanout::max_value              1                       # Request fanout histogram
system.toL2Bus.snoop_fanout::total           56528569                       # Request fanout histogram
system.toL2Bus.reqLayer0.occupancy        35506762964                       # Layer occupancy (ticks)
system.toL2Bus.reqLayer0.utilization              0.1                       # Layer utilization (%)
system.toL2Bus.snoopLayer0.occupancy          1418902                       # Layer occupancy (ticks)
system.toL2Bus.snoopLayer0.utilization            0.0                       # Layer utilization (%)
system.toL2Bus.respLayer0.occupancy       24036893583                       # Layer occupancy (ticks)
system.toL2Bus.respLayer0.utilization             0.0                       # Layer utilization (%)
system.toL2Bus.respLayer1.occupancy       14511308139                       # Layer occupancy (ticks)
system.toL2Bus.respLayer1.utilization             0.0                       # Layer utilization (%)
system.toL2Bus.respLayer2.occupancy         525798129                       # Layer occupancy (ticks)
system.toL2Bus.respLayer2.utilization             0.0                       # Layer utilization (%)
system.toL2Bus.respLayer3.occupancy        1444244841                       # Layer occupancy (ticks)
system.toL2Bus.respLayer3.utilization             0.0                       # Layer utilization (%)
system.cpu0.kern.inst.arm                           0                       # number of arm instructions executed
system.cpu0.kern.inst.quiesce                   16329                       # number of quiesce instructions executed
system.cpu1.kern.inst.arm                           0                       # number of arm instructions executed
system.cpu1.kern.inst.quiesce                       0                       # number of quiesce instructions executed

---------- End Simulation Statistics   ----------
