
---------- Begin Simulation Statistics ----------
sim_seconds                                  5.137752                       # Number of seconds simulated
sim_ticks                                5137751757500                       # Number of ticks simulated
final_tick                               5137751757500                       # Number of ticks from beginning of simulation (restored from checkpoints and never reset)
sim_freq                                 1000000000000                       # Frequency of simulated ticks
host_inst_rate                                 205879                       # Simulator instruction rate (inst/s)
host_op_rate                                   409313                       # Simulator op (including micro ops) rate (op/s)
host_tick_rate                             4343855741                       # Simulator tick rate (ticks/s)
host_mem_usage                                 976756                       # Number of bytes of host memory used
host_seconds                                  1182.76                       # Real time elapsed on the host
sim_insts                                   243506025                       # Number of instructions simulated
sim_ops                                     484120527                       # Number of ops (including micro ops) simulated
system.voltage_domain.voltage                       1                       # Voltage in Volts
system.clk_domain.clock                          1000                       # Clock period in ticks
system.physmem.bytes_read::pc.south_bridge.ide        28352                       # Number of bytes read from this memory
system.physmem.bytes_read::cpu0.itb.walker          256                       # Number of bytes read from this memory
system.physmem.bytes_read::cpu0.inst           475328                       # Number of bytes read from this memory
system.physmem.bytes_read::cpu0.data          5564736                       # Number of bytes read from this memory
system.physmem.bytes_read::cpu1.itb.walker           64                       # Number of bytes read from this memory
system.physmem.bytes_read::cpu1.inst           130048                       # Number of bytes read from this memory
system.physmem.bytes_read::cpu1.data          2113344                       # Number of bytes read from this memory
system.physmem.bytes_read::cpu2.dtb.walker         2688                       # Number of bytes read from this memory
system.physmem.bytes_read::cpu2.inst           362880                       # Number of bytes read from this memory
system.physmem.bytes_read::cpu2.data          2752000                       # Number of bytes read from this memory
system.physmem.bytes_read::total             11429696                       # Number of bytes read from this memory
system.physmem.bytes_inst_read::cpu0.inst       475328                       # Number of instructions bytes read from this memory
system.physmem.bytes_inst_read::cpu1.inst       130048                       # Number of instructions bytes read from this memory
system.physmem.bytes_inst_read::cpu2.inst       362880                       # Number of instructions bytes read from this memory
system.physmem.bytes_inst_read::total          968256                       # Number of instructions bytes read from this memory
system.physmem.bytes_written::writebacks      6180416                       # Number of bytes written to this memory
system.physmem.bytes_written::pc.south_bridge.ide      2990080                       # Number of bytes written to this memory
system.physmem.bytes_written::total           9170496                       # Number of bytes written to this memory
system.physmem.num_reads::pc.south_bridge.ide          443                       # Number of read requests responded to by this memory
system.physmem.num_reads::cpu0.itb.walker            4                       # Number of read requests responded to by this memory
system.physmem.num_reads::cpu0.inst              7427                       # Number of read requests responded to by this memory
system.physmem.num_reads::cpu0.data             86949                       # Number of read requests responded to by this memory
system.physmem.num_reads::cpu1.itb.walker            1                       # Number of read requests responded to by this memory
system.physmem.num_reads::cpu1.inst              2032                       # Number of read requests responded to by this memory
system.physmem.num_reads::cpu1.data             33021                       # Number of read requests responded to by this memory
system.physmem.num_reads::cpu2.dtb.walker           42                       # Number of read requests responded to by this memory
system.physmem.num_reads::cpu2.inst              5670                       # Number of read requests responded to by this memory
system.physmem.num_reads::cpu2.data             43000                       # Number of read requests responded to by this memory
system.physmem.num_reads::total                178589                       # Number of read requests responded to by this memory
system.physmem.num_writes::writebacks           96569                       # Number of write requests responded to by this memory
system.physmem.num_writes::pc.south_bridge.ide        46720                       # Number of write requests responded to by this memory
system.physmem.num_writes::total               143289                       # Number of write requests responded to by this memory
system.physmem.bw_read::pc.south_bridge.ide         5518                       # Total read bandwidth from this memory (bytes/s)
system.physmem.bw_read::cpu0.itb.walker            50                       # Total read bandwidth from this memory (bytes/s)
system.physmem.bw_read::cpu0.inst               92517                       # Total read bandwidth from this memory (bytes/s)
system.physmem.bw_read::cpu0.data             1083107                       # Total read bandwidth from this memory (bytes/s)
system.physmem.bw_read::cpu1.itb.walker            12                       # Total read bandwidth from this memory (bytes/s)
system.physmem.bw_read::cpu1.inst               25312                       # Total read bandwidth from this memory (bytes/s)
system.physmem.bw_read::cpu1.data              411336                       # Total read bandwidth from this memory (bytes/s)
system.physmem.bw_read::cpu2.dtb.walker           523                       # Total read bandwidth from this memory (bytes/s)
system.physmem.bw_read::cpu2.inst               70630                       # Total read bandwidth from this memory (bytes/s)
system.physmem.bw_read::cpu2.data              535643                       # Total read bandwidth from this memory (bytes/s)
system.physmem.bw_read::total                 2224649                       # Total read bandwidth from this memory (bytes/s)
system.physmem.bw_inst_read::cpu0.inst          92517                       # Instruction read bandwidth from this memory (bytes/s)
system.physmem.bw_inst_read::cpu1.inst          25312                       # Instruction read bandwidth from this memory (bytes/s)
system.physmem.bw_inst_read::cpu2.inst          70630                       # Instruction read bandwidth from this memory (bytes/s)
system.physmem.bw_inst_read::total             188459                       # Instruction read bandwidth from this memory (bytes/s)
system.physmem.bw_write::writebacks           1202942                       # Write bandwidth from this memory (bytes/s)
system.physmem.bw_write::pc.south_bridge.ide       581982                       # Write bandwidth from this memory (bytes/s)
system.physmem.bw_write::total                1784924                       # Write bandwidth from this memory (bytes/s)
system.physmem.bw_total::writebacks           1202942                       # Total bandwidth to/from this memory (bytes/s)
system.physmem.bw_total::pc.south_bridge.ide       587501                       # Total bandwidth to/from this memory (bytes/s)
system.physmem.bw_total::cpu0.itb.walker           50                       # Total bandwidth to/from this memory (bytes/s)
system.physmem.bw_total::cpu0.inst              92517                       # Total bandwidth to/from this memory (bytes/s)
system.physmem.bw_total::cpu0.data            1083107                       # Total bandwidth to/from this memory (bytes/s)
system.physmem.bw_total::cpu1.itb.walker           12                       # Total bandwidth to/from this memory (bytes/s)
system.physmem.bw_total::cpu1.inst              25312                       # Total bandwidth to/from this memory (bytes/s)
system.physmem.bw_total::cpu1.data             411336                       # Total bandwidth to/from this memory (bytes/s)
system.physmem.bw_total::cpu2.dtb.walker          523                       # Total bandwidth to/from this memory (bytes/s)
system.physmem.bw_total::cpu2.inst              70630                       # Total bandwidth to/from this memory (bytes/s)
system.physmem.bw_total::cpu2.data             535643                       # Total bandwidth to/from this memory (bytes/s)
system.physmem.bw_total::total                4009573                       # Total bandwidth to/from this memory (bytes/s)
system.physmem.readReqs                         84209                       # Number of read requests accepted
system.physmem.writeReqs                        74716                       # Number of write requests accepted
system.physmem.readBursts                       84209                       # Number of DRAM read bursts, including those serviced by the write queue
system.physmem.writeBursts                      74716                       # Number of DRAM write bursts, including those merged in the write queue
system.physmem.bytesReadDRAM                  5376960                       # Total number of bytes read from DRAM
system.physmem.bytesReadWrQ                     12416                       # Total number of bytes read from write queue
system.physmem.bytesWritten                   4781824                       # Total number of bytes written to DRAM
system.physmem.bytesReadSys                   5389376                       # Total read bytes from the system interface side
system.physmem.bytesWrittenSys                4781824                       # Total written bytes from the system interface side
system.physmem.servicedByWrQ                      194                       # Number of DRAM read bursts serviced by the write queue
system.physmem.mergedWrBursts                       0                       # Number of DRAM write bursts merged with an existing one
system.physmem.neitherReadNorWriteReqs            805                       # Number of requests that are neither read nor write
system.physmem.perBankRdBursts::0                5309                       # Per bank write bursts
system.physmem.perBankRdBursts::1                4164                       # Per bank write bursts
system.physmem.perBankRdBursts::2                4421                       # Per bank write bursts
system.physmem.perBankRdBursts::3                5747                       # Per bank write bursts
system.physmem.perBankRdBursts::4                5625                       # Per bank write bursts
system.physmem.perBankRdBursts::5                4848                       # Per bank write bursts
system.physmem.perBankRdBursts::6                4889                       # Per bank write bursts
system.physmem.perBankRdBursts::7                4803                       # Per bank write bursts
system.physmem.perBankRdBursts::8                5153                       # Per bank write bursts
system.physmem.perBankRdBursts::9                5288                       # Per bank write bursts
system.physmem.perBankRdBursts::10               4847                       # Per bank write bursts
system.physmem.perBankRdBursts::11               5280                       # Per bank write bursts
system.physmem.perBankRdBursts::12               5573                       # Per bank write bursts
system.physmem.perBankRdBursts::13               6540                       # Per bank write bursts
system.physmem.perBankRdBursts::14               6055                       # Per bank write bursts
system.physmem.perBankRdBursts::15               5473                       # Per bank write bursts
system.physmem.perBankWrBursts::0                4689                       # Per bank write bursts
system.physmem.perBankWrBursts::1                3818                       # Per bank write bursts
system.physmem.perBankWrBursts::2                3922                       # Per bank write bursts
system.physmem.perBankWrBursts::3                4862                       # Per bank write bursts
system.physmem.perBankWrBursts::4                4936                       # Per bank write bursts
system.physmem.perBankWrBursts::5                4229                       # Per bank write bursts
system.physmem.perBankWrBursts::6                4848                       # Per bank write bursts
system.physmem.perBankWrBursts::7                4482                       # Per bank write bursts
system.physmem.perBankWrBursts::8                4577                       # Per bank write bursts
system.physmem.perBankWrBursts::9                4853                       # Per bank write bursts
system.physmem.perBankWrBursts::10               4451                       # Per bank write bursts
system.physmem.perBankWrBursts::11               4689                       # Per bank write bursts
system.physmem.perBankWrBursts::12               4903                       # Per bank write bursts
system.physmem.perBankWrBursts::13               5464                       # Per bank write bursts
system.physmem.perBankWrBursts::14               5149                       # Per bank write bursts
system.physmem.perBankWrBursts::15               4844                       # Per bank write bursts
system.physmem.numRdRetry                           0                       # Number of times read queue was full causing retry
system.physmem.numWrRetry                           0                       # Number of times write queue was full causing retry
system.physmem.totGap                    5136577016500                       # Total gap between requests
system.physmem.readPktSize::0                       0                       # Read request sizes (log2)
system.physmem.readPktSize::1                       0                       # Read request sizes (log2)
system.physmem.readPktSize::2                       0                       # Read request sizes (log2)
system.physmem.readPktSize::3                       0                       # Read request sizes (log2)
system.physmem.readPktSize::4                       0                       # Read request sizes (log2)
system.physmem.readPktSize::5                       0                       # Read request sizes (log2)
system.physmem.readPktSize::6                   84209                       # Read request sizes (log2)
system.physmem.writePktSize::0                      0                       # Write request sizes (log2)
system.physmem.writePktSize::1                      0                       # Write request sizes (log2)
system.physmem.writePktSize::2                      0                       # Write request sizes (log2)
system.physmem.writePktSize::3                      0                       # Write request sizes (log2)
system.physmem.writePktSize::4                      0                       # Write request sizes (log2)
system.physmem.writePktSize::5                      0                       # Write request sizes (log2)
system.physmem.writePktSize::6                  74716                       # Write request sizes (log2)
system.physmem.rdQLenPdf::0                     79815                       # What read queue length does an incoming req see
system.physmem.rdQLenPdf::1                      3315                       # What read queue length does an incoming req see
system.physmem.rdQLenPdf::2                       428                       # What read queue length does an incoming req see
system.physmem.rdQLenPdf::3                       133                       # What read queue length does an incoming req see
system.physmem.rdQLenPdf::4                        41                       # What read queue length does an incoming req see
system.physmem.rdQLenPdf::5                        39                       # What read queue length does an incoming req see
system.physmem.rdQLenPdf::6                        35                       # What read queue length does an incoming req see
system.physmem.rdQLenPdf::7                        32                       # What read queue length does an incoming req see
system.physmem.rdQLenPdf::8                        28                       # What read queue length does an incoming req see
system.physmem.rdQLenPdf::9                        29                       # What read queue length does an incoming req see
system.physmem.rdQLenPdf::10                       29                       # What read queue length does an incoming req see
system.physmem.rdQLenPdf::11                       27                       # What read queue length does an incoming req see
system.physmem.rdQLenPdf::12                       26                       # What read queue length does an incoming req see
system.physmem.rdQLenPdf::13                       25                       # What read queue length does an incoming req see
system.physmem.rdQLenPdf::14                        7                       # What read queue length does an incoming req see
system.physmem.rdQLenPdf::15                        2                       # What read queue length does an incoming req see
system.physmem.rdQLenPdf::16                        2                       # What read queue length does an incoming req see
system.physmem.rdQLenPdf::17                        2                       # What read queue length does an incoming req see
system.physmem.rdQLenPdf::18                        0                       # What read queue length does an incoming req see
system.physmem.rdQLenPdf::19                        0                       # What read queue length does an incoming req see
system.physmem.rdQLenPdf::20                        0                       # What read queue length does an incoming req see
system.physmem.rdQLenPdf::21                        0                       # What read queue length does an incoming req see
system.physmem.rdQLenPdf::22                        0                       # What read queue length does an incoming req see
system.physmem.rdQLenPdf::23                        0                       # What read queue length does an incoming req see
system.physmem.rdQLenPdf::24                        0                       # What read queue length does an incoming req see
system.physmem.rdQLenPdf::25                        0                       # What read queue length does an incoming req see
system.physmem.rdQLenPdf::26                        0                       # What read queue length does an incoming req see
system.physmem.rdQLenPdf::27                        0                       # What read queue length does an incoming req see
system.physmem.rdQLenPdf::28                        0                       # What read queue length does an incoming req see
system.physmem.rdQLenPdf::29                        0                       # What read queue length does an incoming req see
system.physmem.rdQLenPdf::30                        0                       # What read queue length does an incoming req see
system.physmem.rdQLenPdf::31                        0                       # What read queue length does an incoming req see
system.physmem.wrQLenPdf::0                       123                       # What write queue length does an incoming req see
system.physmem.wrQLenPdf::1                        68                       # What write queue length does an incoming req see
system.physmem.wrQLenPdf::2                        66                       # What write queue length does an incoming req see
system.physmem.wrQLenPdf::3                        62                       # What write queue length does an incoming req see
system.physmem.wrQLenPdf::4                        58                       # What write queue length does an incoming req see
system.physmem.wrQLenPdf::5                        56                       # What write queue length does an incoming req see
system.physmem.wrQLenPdf::6                        56                       # What write queue length does an incoming req see
system.physmem.wrQLenPdf::7                        55                       # What write queue length does an incoming req see
system.physmem.wrQLenPdf::8                        55                       # What write queue length does an incoming req see
system.physmem.wrQLenPdf::9                        55                       # What write queue length does an incoming req see
system.physmem.wrQLenPdf::10                       55                       # What write queue length does an incoming req see
system.physmem.wrQLenPdf::11                       55                       # What write queue length does an incoming req see
system.physmem.wrQLenPdf::12                       54                       # What write queue length does an incoming req see
system.physmem.wrQLenPdf::13                       54                       # What write queue length does an incoming req see
system.physmem.wrQLenPdf::14                       55                       # What write queue length does an incoming req see
system.physmem.wrQLenPdf::15                     1333                       # What write queue length does an incoming req see
system.physmem.wrQLenPdf::16                     1661                       # What write queue length does an incoming req see
system.physmem.wrQLenPdf::17                     3664                       # What write queue length does an incoming req see
system.physmem.wrQLenPdf::18                     3841                       # What write queue length does an incoming req see
system.physmem.wrQLenPdf::19                     3881                       # What write queue length does an incoming req see
system.physmem.wrQLenPdf::20                     4252                       # What write queue length does an incoming req see
system.physmem.wrQLenPdf::21                     4400                       # What write queue length does an incoming req see
system.physmem.wrQLenPdf::22                     4751                       # What write queue length does an incoming req see
system.physmem.wrQLenPdf::23                     5087                       # What write queue length does an incoming req see
system.physmem.wrQLenPdf::24                     5589                       # What write queue length does an incoming req see
system.physmem.wrQLenPdf::25                     5179                       # What write queue length does an incoming req see
system.physmem.wrQLenPdf::26                     4864                       # What write queue length does an incoming req see
system.physmem.wrQLenPdf::27                     4484                       # What write queue length does an incoming req see
system.physmem.wrQLenPdf::28                     4396                       # What write queue length does an incoming req see
system.physmem.wrQLenPdf::29                     3849                       # What write queue length does an incoming req see
system.physmem.wrQLenPdf::30                     3706                       # What write queue length does an incoming req see
system.physmem.wrQLenPdf::31                     3707                       # What write queue length does an incoming req see
system.physmem.wrQLenPdf::32                     3671                       # What write queue length does an incoming req see
system.physmem.wrQLenPdf::33                       72                       # What write queue length does an incoming req see
system.physmem.wrQLenPdf::34                       73                       # What write queue length does an incoming req see
system.physmem.wrQLenPdf::35                       82                       # What write queue length does an incoming req see
system.physmem.wrQLenPdf::36                       83                       # What write queue length does an incoming req see
system.physmem.wrQLenPdf::37                       86                       # What write queue length does an incoming req see
system.physmem.wrQLenPdf::38                       91                       # What write queue length does an incoming req see
system.physmem.wrQLenPdf::39                      101                       # What write queue length does an incoming req see
system.physmem.wrQLenPdf::40                       80                       # What write queue length does an incoming req see
system.physmem.wrQLenPdf::41                       73                       # What write queue length does an incoming req see
system.physmem.wrQLenPdf::42                       65                       # What write queue length does an incoming req see
system.physmem.wrQLenPdf::43                       63                       # What write queue length does an incoming req see
system.physmem.wrQLenPdf::44                       71                       # What write queue length does an incoming req see
system.physmem.wrQLenPdf::45                       81                       # What write queue length does an incoming req see
system.physmem.wrQLenPdf::46                       65                       # What write queue length does an incoming req see
system.physmem.wrQLenPdf::47                       64                       # What write queue length does an incoming req see
system.physmem.wrQLenPdf::48                       66                       # What write queue length does an incoming req see
system.physmem.wrQLenPdf::49                       60                       # What write queue length does an incoming req see
system.physmem.wrQLenPdf::50                       54                       # What write queue length does an incoming req see
system.physmem.wrQLenPdf::51                       28                       # What write queue length does an incoming req see
system.physmem.wrQLenPdf::52                       26                       # What write queue length does an incoming req see
system.physmem.wrQLenPdf::53                       24                       # What write queue length does an incoming req see
system.physmem.wrQLenPdf::54                       14                       # What write queue length does an incoming req see
system.physmem.wrQLenPdf::55                       12                       # What write queue length does an incoming req see
system.physmem.wrQLenPdf::56                       16                       # What write queue length does an incoming req see
system.physmem.wrQLenPdf::57                        8                       # What write queue length does an incoming req see
system.physmem.wrQLenPdf::58                        7                       # What write queue length does an incoming req see
system.physmem.wrQLenPdf::59                        4                       # What write queue length does an incoming req see
system.physmem.wrQLenPdf::60                        3                       # What write queue length does an incoming req see
system.physmem.wrQLenPdf::61                        1                       # What write queue length does an incoming req see
system.physmem.wrQLenPdf::62                        1                       # What write queue length does an incoming req see
system.physmem.wrQLenPdf::63                        0                       # What write queue length does an incoming req see
system.physmem.bytesPerActivate::samples        37237                       # Bytes accessed per row activation
system.physmem.bytesPerActivate::mean      272.814244                       # Bytes accessed per row activation
system.physmem.bytesPerActivate::gmean     163.615678                       # Bytes accessed per row activation
system.physmem.bytesPerActivate::stdev     301.614315                       # Bytes accessed per row activation
system.physmem.bytesPerActivate::0-127          15278     41.03%     41.03% # Bytes accessed per row activation
system.physmem.bytesPerActivate::128-255         9118     24.49%     65.52% # Bytes accessed per row activation
system.physmem.bytesPerActivate::256-383         3769     10.12%     75.64% # Bytes accessed per row activation
system.physmem.bytesPerActivate::384-511         2135      5.73%     81.37% # Bytes accessed per row activation
system.physmem.bytesPerActivate::512-639         1492      4.01%     85.38% # Bytes accessed per row activation
system.physmem.bytesPerActivate::640-767          936      2.51%     87.89% # Bytes accessed per row activation
system.physmem.bytesPerActivate::768-895          657      1.76%     89.66% # Bytes accessed per row activation
system.physmem.bytesPerActivate::896-1023          562      1.51%     91.16% # Bytes accessed per row activation
system.physmem.bytesPerActivate::1024-1151         3290      8.84%    100.00% # Bytes accessed per row activation
system.physmem.bytesPerActivate::total          37237                       # Bytes accessed per row activation
system.physmem.rdPerTurnAround::samples          3726                       # Reads before turning the bus around for writes
system.physmem.rdPerTurnAround::mean        22.548309                       # Reads before turning the bus around for writes
system.physmem.rdPerTurnAround::stdev      194.901220                       # Reads before turning the bus around for writes
system.physmem.rdPerTurnAround::0-511            3723     99.92%     99.92% # Reads before turning the bus around for writes
system.physmem.rdPerTurnAround::512-1023            1      0.03%     99.95% # Reads before turning the bus around for writes
system.physmem.rdPerTurnAround::5632-6143            1      0.03%     99.97% # Reads before turning the bus around for writes
system.physmem.rdPerTurnAround::9728-10239            1      0.03%    100.00% # Reads before turning the bus around for writes
system.physmem.rdPerTurnAround::total            3726                       # Reads before turning the bus around for writes
system.physmem.wrPerTurnAround::samples          3726                       # Writes before turning the bus around for reads
system.physmem.wrPerTurnAround::mean        20.052603                       # Writes before turning the bus around for reads
system.physmem.wrPerTurnAround::gmean       17.849959                       # Writes before turning the bus around for reads
system.physmem.wrPerTurnAround::stdev       12.299765                       # Writes before turning the bus around for reads
system.physmem.wrPerTurnAround::0-3                61      1.64%      1.64% # Writes before turning the bus around for reads
system.physmem.wrPerTurnAround::4-7                 9      0.24%      1.88% # Writes before turning the bus around for reads
system.physmem.wrPerTurnAround::8-11                1      0.03%      1.91% # Writes before turning the bus around for reads
system.physmem.wrPerTurnAround::12-15               4      0.11%      2.01% # Writes before turning the bus around for reads
system.physmem.wrPerTurnAround::16-19            3105     83.33%     85.35% # Writes before turning the bus around for reads
system.physmem.wrPerTurnAround::20-23              37      0.99%     86.34% # Writes before turning the bus around for reads
system.physmem.wrPerTurnAround::24-27              24      0.64%     86.98% # Writes before turning the bus around for reads
system.physmem.wrPerTurnAround::28-31             154      4.13%     91.12% # Writes before turning the bus around for reads
system.physmem.wrPerTurnAround::32-35             145      3.89%     95.01% # Writes before turning the bus around for reads
system.physmem.wrPerTurnAround::36-39               6      0.16%     95.17% # Writes before turning the bus around for reads
system.physmem.wrPerTurnAround::40-43              11      0.30%     95.46% # Writes before turning the bus around for reads
system.physmem.wrPerTurnAround::44-47               2      0.05%     95.52% # Writes before turning the bus around for reads
system.physmem.wrPerTurnAround::48-51              14      0.38%     95.89% # Writes before turning the bus around for reads
system.physmem.wrPerTurnAround::52-55               4      0.11%     96.00% # Writes before turning the bus around for reads
system.physmem.wrPerTurnAround::60-63               1      0.03%     96.03% # Writes before turning the bus around for reads
system.physmem.wrPerTurnAround::64-67             119      3.19%     99.22% # Writes before turning the bus around for reads
system.physmem.wrPerTurnAround::68-71               5      0.13%     99.36% # Writes before turning the bus around for reads
system.physmem.wrPerTurnAround::72-75               1      0.03%     99.38% # Writes before turning the bus around for reads
system.physmem.wrPerTurnAround::76-79               1      0.03%     99.41% # Writes before turning the bus around for reads
system.physmem.wrPerTurnAround::80-83               6      0.16%     99.57% # Writes before turning the bus around for reads
system.physmem.wrPerTurnAround::96-99               4      0.11%     99.68% # Writes before turning the bus around for reads
system.physmem.wrPerTurnAround::104-107             1      0.03%     99.70% # Writes before turning the bus around for reads
system.physmem.wrPerTurnAround::120-123             1      0.03%     99.73% # Writes before turning the bus around for reads
system.physmem.wrPerTurnAround::128-131             9      0.24%     99.97% # Writes before turning the bus around for reads
system.physmem.wrPerTurnAround::136-139             1      0.03%    100.00% # Writes before turning the bus around for reads
system.physmem.wrPerTurnAround::total            3726                       # Writes before turning the bus around for reads
system.physmem.totQLat                      920887750                       # Total ticks spent queuing
system.physmem.totMemAccLat                2496169000                       # Total ticks spent from burst creation until serviced by the DRAM
system.physmem.totBusLat                    420075000                       # Total ticks spent in databus transfers
system.physmem.avgQLat                       10960.99                       # Average queueing delay per DRAM burst
system.physmem.avgBusLat                      5000.00                       # Average bus latency per DRAM burst
system.physmem.avgMemAccLat                  29710.99                       # Average memory access latency per DRAM burst
system.physmem.avgRdBW                           1.05                       # Average DRAM read bandwidth in MiByte/s
system.physmem.avgWrBW                           0.93                       # Average achieved write bandwidth in MiByte/s
system.physmem.avgRdBWSys                        1.05                       # Average system read bandwidth in MiByte/s
system.physmem.avgWrBWSys                        0.93                       # Average system write bandwidth in MiByte/s
system.physmem.peakBW                        12800.00                       # Theoretical peak bandwidth in MiByte/s
system.physmem.busUtil                           0.02                       # Data bus utilization in percentage
system.physmem.busUtilRead                       0.01                       # Data bus utilization in percentage for reads
system.physmem.busUtilWrite                      0.01                       # Data bus utilization in percentage for writes
system.physmem.avgRdQLen                         1.00                       # Average read queue length when enqueuing
system.physmem.avgWrQLen                        12.74                       # Average write queue length when enqueuing
system.physmem.readRowHits                      66918                       # Number of row buffer hits during reads
system.physmem.writeRowHits                     54576                       # Number of row buffer hits during writes
system.physmem.readRowHitRate                   79.65                       # Row buffer hit rate for reads
system.physmem.writeRowHitRate                  73.04                       # Row buffer hit rate for writes
system.physmem.avgGap                     32320761.47                       # Average gap between requests
system.physmem.pageHitRate                      76.54                       # Row buffer hit rate, read and write combined
system.physmem.memoryStateTime::IDLE     4942660463000                       # Time in different power states
system.physmem.memoryStateTime::REF      171560740000                       # Time in different power states
system.physmem.memoryStateTime::PRE_PDN             0                       # Time in different power states
system.physmem.memoryStateTime::ACT       23528333250                       # Time in different power states
system.physmem.memoryStateTime::ACT_PDN             0                       # Time in different power states
system.physmem.actEnergy::0                 135618840                       # Energy for activate commands per rank (pJ)
system.physmem.actEnergy::1                 145892880                       # Energy for activate commands per rank (pJ)
system.physmem.preEnergy::0                  73998375                       # Energy for precharge commands per rank (pJ)
system.physmem.preEnergy::1                  79604250                       # Energy for precharge commands per rank (pJ)
system.physmem.readEnergy::0                310486800                       # Energy for read commands per rank (pJ)
system.physmem.readEnergy::1                344830200                       # Energy for read commands per rank (pJ)
system.physmem.writeEnergy::0               231893280                       # Energy for write commands per rank (pJ)
system.physmem.writeEnergy::1               252266400                       # Energy for write commands per rank (pJ)
system.physmem.refreshEnergy::0          335572807440                       # Energy for refresh commands per rank (pJ)
system.physmem.refreshEnergy::1          335572807440                       # Energy for refresh commands per rank (pJ)
system.physmem.actBackEnergy::0          122729524065                       # Energy for active background per rank (pJ)
system.physmem.actBackEnergy::1          123386936985                       # Energy for active background per rank (pJ)
system.physmem.preBackEnergy::0          2974992236250                       # Energy for precharge background per rank (pJ)
system.physmem.preBackEnergy::1          2974415558250                       # Energy for precharge background per rank (pJ)
system.physmem.totalEnergy::0            3434046565050                       # Total energy per rank (pJ)
system.physmem.totalEnergy::1            3434197896405                       # Total energy per rank (pJ)
system.physmem.averagePower::0             668.395092                       # Core power per rank (mW)
system.physmem.averagePower::1             668.424547                       # Core power per rank (mW)
system.membus.trans_dist::ReadReq             5119571                       # Transaction distribution
system.membus.trans_dist::ReadResp            5119569                       # Transaction distribution
system.membus.trans_dist::WriteReq              13900                       # Transaction distribution
system.membus.trans_dist::WriteResp             13900                       # Transaction distribution
system.membus.trans_dist::Writeback             96569                       # Transaction distribution
system.membus.trans_dist::WriteInvalidateReq        46720                       # Transaction distribution
system.membus.trans_dist::WriteInvalidateResp        46720                       # Transaction distribution
system.membus.trans_dist::UpgradeReq             1658                       # Transaction distribution
system.membus.trans_dist::UpgradeResp            1658                       # Transaction distribution
system.membus.trans_dist::ReadExReq            130179                       # Transaction distribution
system.membus.trans_dist::ReadExResp           130179                       # Transaction distribution
system.membus.trans_dist::MessageReq             1687                       # Transaction distribution
system.membus.trans_dist::MessageResp            1687                       # Transaction distribution
system.membus.trans_dist::BadAddressError            2                       # Transaction distribution
system.membus.pkt_count_system.apicbridge.master::system.cpu0.interrupts.int_slave         3374                       # Packet count per connected master and slave (bytes)
system.membus.pkt_count_system.apicbridge.master::total         3374                       # Packet count per connected master and slave (bytes)
system.membus.pkt_count_system.l2c.mem_side::system.bridge.slave      7129206                       # Packet count per connected master and slave (bytes)
system.membus.pkt_count_system.l2c.mem_side::system.cpu0.interrupts.pio      3039990                       # Packet count per connected master and slave (bytes)
system.membus.pkt_count_system.l2c.mem_side::system.physmem.port       456177                       # Packet count per connected master and slave (bytes)
system.membus.pkt_count_system.l2c.mem_side::system.membus.badaddr_responder.pio            4                       # Packet count per connected master and slave (bytes)
system.membus.pkt_count_system.l2c.mem_side::total     10625377                       # Packet count per connected master and slave (bytes)
system.membus.pkt_count_system.iocache.mem_side::system.physmem.port        94957                       # Packet count per connected master and slave (bytes)
system.membus.pkt_count_system.iocache.mem_side::total        94957                       # Packet count per connected master and slave (bytes)
system.membus.pkt_count::total               10723708                       # Packet count per connected master and slave (bytes)
system.membus.pkt_size_system.apicbridge.master::system.cpu0.interrupts.int_slave         6748                       # Cumulative packet size per connected master and slave (bytes)
system.membus.pkt_size_system.apicbridge.master::total         6748                       # Cumulative packet size per connected master and slave (bytes)
system.membus.pkt_size_system.l2c.mem_side::system.bridge.slave      3570760                       # Cumulative packet size per connected master and slave (bytes)
system.membus.pkt_size_system.l2c.mem_side::system.cpu0.interrupts.pio      6079977                       # Cumulative packet size per connected master and slave (bytes)
system.membus.pkt_size_system.l2c.mem_side::system.physmem.port     17581760                       # Cumulative packet size per connected master and slave (bytes)
system.membus.pkt_size_system.l2c.mem_side::total     27232497                       # Cumulative packet size per connected master and slave (bytes)
system.membus.pkt_size_system.iocache.mem_side::system.physmem.port      3029312                       # Cumulative packet size per connected master and slave (bytes)
system.membus.pkt_size_system.iocache.mem_side::total      3029312                       # Cumulative packet size per connected master and slave (bytes)
system.membus.pkt_size::total                30268557                       # Cumulative packet size per connected master and slave (bytes)
system.membus.snoops                              291                       # Total snoops (count)
system.membus.snoop_fanout::samples            323999                       # Request fanout histogram
system.membus.snoop_fanout::mean                    1                       # Request fanout histogram
system.membus.snoop_fanout::stdev                   0                       # Request fanout histogram
system.membus.snoop_fanout::underflows              0      0.00%      0.00% # Request fanout histogram
system.membus.snoop_fanout::0                       0      0.00%      0.00% # Request fanout histogram
system.membus.snoop_fanout::1                  323999    100.00%    100.00% # Request fanout histogram
system.membus.snoop_fanout::2                       0      0.00%    100.00% # Request fanout histogram
system.membus.snoop_fanout::overflows               0      0.00%    100.00% # Request fanout histogram
system.membus.snoop_fanout::min_value               1                       # Request fanout histogram
system.membus.snoop_fanout::max_value               1                       # Request fanout histogram
system.membus.snoop_fanout::total              323999                       # Request fanout histogram
system.membus.reqLayer0.occupancy           162958500                       # Layer occupancy (ticks)
system.membus.reqLayer0.utilization               0.0                       # Layer utilization (%)
system.membus.reqLayer1.occupancy           314938500                       # Layer occupancy (ticks)
system.membus.reqLayer1.utilization               0.0                       # Layer utilization (%)
system.membus.reqLayer2.occupancy             2254000                       # Layer occupancy (ticks)
system.membus.reqLayer2.utilization               0.0                       # Layer utilization (%)
system.membus.reqLayer3.occupancy           804193000                       # Layer occupancy (ticks)
system.membus.reqLayer3.utilization               0.0                       # Layer utilization (%)
system.membus.reqLayer4.occupancy                2000                       # Layer occupancy (ticks)
system.membus.reqLayer4.utilization               0.0                       # Layer utilization (%)
system.membus.respLayer0.occupancy            1127000                       # Layer occupancy (ticks)
system.membus.respLayer0.utilization              0.0                       # Layer utilization (%)
system.membus.respLayer2.occupancy         1664243698                       # Layer occupancy (ticks)
system.membus.respLayer2.utilization              0.0                       # Layer utilization (%)
system.membus.respLayer4.occupancy           28678745                       # Layer occupancy (ticks)
system.membus.respLayer4.utilization              0.0                       # Layer utilization (%)
system.cpu_clk_domain.clock                       500                       # Clock period in ticks
system.l2c.tags.replacements                   104648                       # number of replacements
system.l2c.tags.tagsinuse                64825.327064                       # Cycle average of tags in use
system.l2c.tags.total_refs                    3691316                       # Total number of references to valid blocks.
system.l2c.tags.sampled_refs                   168821                       # Sample count of references to valid blocks.
system.l2c.tags.avg_refs                    21.865266                       # Average number of references to valid blocks.
system.l2c.tags.warmup_cycle                        0                       # Cycle when the warmup percentage was hit.
system.l2c.tags.occ_blocks::writebacks   51329.060133                       # Average occupied blocks per requestor
system.l2c.tags.occ_blocks::cpu0.itb.walker     0.131449                       # Average occupied blocks per requestor
system.l2c.tags.occ_blocks::cpu0.inst     1735.761730                       # Average occupied blocks per requestor
system.l2c.tags.occ_blocks::cpu0.data     4946.132925                       # Average occupied blocks per requestor
system.l2c.tags.occ_blocks::cpu1.itb.walker     0.003182                       # Average occupied blocks per requestor
system.l2c.tags.occ_blocks::cpu1.inst      379.214744                       # Average occupied blocks per requestor
system.l2c.tags.occ_blocks::cpu1.data     1982.386911                       # Average occupied blocks per requestor
system.l2c.tags.occ_blocks::cpu2.dtb.walker    11.162749                       # Average occupied blocks per requestor
system.l2c.tags.occ_blocks::cpu2.inst      878.696468                       # Average occupied blocks per requestor
system.l2c.tags.occ_blocks::cpu2.data     3562.776774                       # Average occupied blocks per requestor
system.l2c.tags.occ_percent::writebacks      0.783219                       # Average percentage of cache occupancy
system.l2c.tags.occ_percent::cpu0.itb.walker     0.000002                       # Average percentage of cache occupancy
system.l2c.tags.occ_percent::cpu0.inst       0.026486                       # Average percentage of cache occupancy
system.l2c.tags.occ_percent::cpu0.data       0.075472                       # Average percentage of cache occupancy
system.l2c.tags.occ_percent::cpu1.itb.walker     0.000000                       # Average percentage of cache occupancy
system.l2c.tags.occ_percent::cpu1.inst       0.005786                       # Average percentage of cache occupancy
system.l2c.tags.occ_percent::cpu1.data       0.030249                       # Average percentage of cache occupancy
system.l2c.tags.occ_percent::cpu2.dtb.walker     0.000170                       # Average percentage of cache occupancy
system.l2c.tags.occ_percent::cpu2.inst       0.013408                       # Average percentage of cache occupancy
system.l2c.tags.occ_percent::cpu2.data       0.054364                       # Average percentage of cache occupancy
system.l2c.tags.occ_percent::total           0.989156                       # Average percentage of cache occupancy
system.l2c.tags.occ_task_id_blocks::1024        64173                       # Occupied blocks per task id
system.l2c.tags.age_task_id_blocks_1024::0           73                       # Occupied blocks per task id
system.l2c.tags.age_task_id_blocks_1024::1          242                       # Occupied blocks per task id
system.l2c.tags.age_task_id_blocks_1024::2         3770                       # Occupied blocks per task id
system.l2c.tags.age_task_id_blocks_1024::3         7642                       # Occupied blocks per task id
system.l2c.tags.age_task_id_blocks_1024::4        52446                       # Occupied blocks per task id
system.l2c.tags.occ_task_id_percent::1024     0.979202                       # Percentage of cache occupancy per task id
system.l2c.tags.tag_accesses                 33857298                       # Number of tag accesses
system.l2c.tags.data_accesses                33857298                       # Number of data accesses
system.l2c.ReadReq_hits::cpu0.dtb.walker        21885                       # number of ReadReq hits
system.l2c.ReadReq_hits::cpu0.itb.walker        11413                       # number of ReadReq hits
system.l2c.ReadReq_hits::cpu0.inst             321088                       # number of ReadReq hits
system.l2c.ReadReq_hits::cpu0.data             497388                       # number of ReadReq hits
system.l2c.ReadReq_hits::cpu1.dtb.walker        12632                       # number of ReadReq hits
system.l2c.ReadReq_hits::cpu1.itb.walker         6595                       # number of ReadReq hits
system.l2c.ReadReq_hits::cpu1.inst             160077                       # number of ReadReq hits
system.l2c.ReadReq_hits::cpu1.data             224317                       # number of ReadReq hits
system.l2c.ReadReq_hits::cpu2.dtb.walker        53710                       # number of ReadReq hits
system.l2c.ReadReq_hits::cpu2.itb.walker        12539                       # number of ReadReq hits
system.l2c.ReadReq_hits::cpu2.inst             370609                       # number of ReadReq hits
system.l2c.ReadReq_hits::cpu2.data             592462                       # number of ReadReq hits
system.l2c.ReadReq_hits::total                2284715                       # number of ReadReq hits
system.l2c.WriteReq_hits::cpu0.itb.walker            2                       # number of WriteReq hits
system.l2c.WriteReq_hits::total                     2                       # number of WriteReq hits
system.l2c.Writeback_hits::writebacks         1547592                       # number of Writeback hits
system.l2c.Writeback_hits::total              1547592                       # number of Writeback hits
system.l2c.UpgradeReq_hits::cpu0.data             126                       # number of UpgradeReq hits
system.l2c.UpgradeReq_hits::cpu1.data              49                       # number of UpgradeReq hits
system.l2c.UpgradeReq_hits::cpu2.data              89                       # number of UpgradeReq hits
system.l2c.UpgradeReq_hits::total                 264                       # number of UpgradeReq hits
system.l2c.ReadExReq_hits::cpu0.data            63533                       # number of ReadExReq hits
system.l2c.ReadExReq_hits::cpu1.data            34910                       # number of ReadExReq hits
system.l2c.ReadExReq_hits::cpu2.data            62567                       # number of ReadExReq hits
system.l2c.ReadExReq_hits::total               161010                       # number of ReadExReq hits
system.l2c.demand_hits::cpu0.dtb.walker         21885                       # number of demand (read+write) hits
system.l2c.demand_hits::cpu0.itb.walker         11415                       # number of demand (read+write) hits
system.l2c.demand_hits::cpu0.inst              321088                       # number of demand (read+write) hits
system.l2c.demand_hits::cpu0.data              560921                       # number of demand (read+write) hits
system.l2c.demand_hits::cpu1.dtb.walker         12632                       # number of demand (read+write) hits
system.l2c.demand_hits::cpu1.itb.walker          6595                       # number of demand (read+write) hits
system.l2c.demand_hits::cpu1.inst              160077                       # number of demand (read+write) hits
system.l2c.demand_hits::cpu1.data              259227                       # number of demand (read+write) hits
system.l2c.demand_hits::cpu2.dtb.walker         53710                       # number of demand (read+write) hits
system.l2c.demand_hits::cpu2.itb.walker         12539                       # number of demand (read+write) hits
system.l2c.demand_hits::cpu2.inst              370609                       # number of demand (read+write) hits
system.l2c.demand_hits::cpu2.data              655029                       # number of demand (read+write) hits
system.l2c.demand_hits::total                 2445727                       # number of demand (read+write) hits
system.l2c.overall_hits::cpu0.dtb.walker        21885                       # number of overall hits
system.l2c.overall_hits::cpu0.itb.walker        11415                       # number of overall hits
system.l2c.overall_hits::cpu0.inst             321088                       # number of overall hits
system.l2c.overall_hits::cpu0.data             560921                       # number of overall hits
system.l2c.overall_hits::cpu1.dtb.walker        12632                       # number of overall hits
system.l2c.overall_hits::cpu1.itb.walker         6595                       # number of overall hits
system.l2c.overall_hits::cpu1.inst             160077                       # number of overall hits
system.l2c.overall_hits::cpu1.data             259227                       # number of overall hits
system.l2c.overall_hits::cpu2.dtb.walker        53710                       # number of overall hits
system.l2c.overall_hits::cpu2.itb.walker        12539                       # number of overall hits
system.l2c.overall_hits::cpu2.inst             370609                       # number of overall hits
system.l2c.overall_hits::cpu2.data             655029                       # number of overall hits
system.l2c.overall_hits::total                2445727                       # number of overall hits
system.l2c.ReadReq_misses::cpu0.itb.walker            4                       # number of ReadReq misses
system.l2c.ReadReq_misses::cpu0.inst             7427                       # number of ReadReq misses
system.l2c.ReadReq_misses::cpu0.data            17501                       # number of ReadReq misses
system.l2c.ReadReq_misses::cpu1.itb.walker            1                       # number of ReadReq misses
system.l2c.ReadReq_misses::cpu1.inst             2032                       # number of ReadReq misses
system.l2c.ReadReq_misses::cpu1.data             4808                       # number of ReadReq misses
system.l2c.ReadReq_misses::cpu2.dtb.walker           42                       # number of ReadReq misses
system.l2c.ReadReq_misses::cpu2.inst             5670                       # number of ReadReq misses
system.l2c.ReadReq_misses::cpu2.data            10484                       # number of ReadReq misses
system.l2c.ReadReq_misses::total                47969                       # number of ReadReq misses
system.l2c.UpgradeReq_misses::cpu0.data           766                       # number of UpgradeReq misses
system.l2c.UpgradeReq_misses::cpu1.data           250                       # number of UpgradeReq misses
system.l2c.UpgradeReq_misses::cpu2.data           384                       # number of UpgradeReq misses
system.l2c.UpgradeReq_misses::total              1400                       # number of UpgradeReq misses
system.l2c.ReadExReq_misses::cpu0.data          69535                       # number of ReadExReq misses
system.l2c.ReadExReq_misses::cpu1.data          28299                       # number of ReadExReq misses
system.l2c.ReadExReq_misses::cpu2.data          32603                       # number of ReadExReq misses
system.l2c.ReadExReq_misses::total             130437                       # number of ReadExReq misses
system.l2c.demand_misses::cpu0.itb.walker            4                       # number of demand (read+write) misses
system.l2c.demand_misses::cpu0.inst              7427                       # number of demand (read+write) misses
system.l2c.demand_misses::cpu0.data             87036                       # number of demand (read+write) misses
system.l2c.demand_misses::cpu1.itb.walker            1                       # number of demand (read+write) misses
system.l2c.demand_misses::cpu1.inst              2032                       # number of demand (read+write) misses
system.l2c.demand_misses::cpu1.data             33107                       # number of demand (read+write) misses
system.l2c.demand_misses::cpu2.dtb.walker           42                       # number of demand (read+write) misses
system.l2c.demand_misses::cpu2.inst              5670                       # number of demand (read+write) misses
system.l2c.demand_misses::cpu2.data             43087                       # number of demand (read+write) misses
system.l2c.demand_misses::total                178406                       # number of demand (read+write) misses
system.l2c.overall_misses::cpu0.itb.walker            4                       # number of overall misses
system.l2c.overall_misses::cpu0.inst             7427                       # number of overall misses
system.l2c.overall_misses::cpu0.data            87036                       # number of overall misses
system.l2c.overall_misses::cpu1.itb.walker            1                       # number of overall misses
system.l2c.overall_misses::cpu1.inst             2032                       # number of overall misses
system.l2c.overall_misses::cpu1.data            33107                       # number of overall misses
system.l2c.overall_misses::cpu2.dtb.walker           42                       # number of overall misses
system.l2c.overall_misses::cpu2.inst             5670                       # number of overall misses
system.l2c.overall_misses::cpu2.data            43087                       # number of overall misses
system.l2c.overall_misses::total               178406                       # number of overall misses
system.l2c.ReadReq_miss_latency::cpu1.itb.walker        74500                       # number of ReadReq miss cycles
system.l2c.ReadReq_miss_latency::cpu1.inst    150329750                       # number of ReadReq miss cycles
system.l2c.ReadReq_miss_latency::cpu1.data    367685500                       # number of ReadReq miss cycles
system.l2c.ReadReq_miss_latency::cpu2.dtb.walker      3647250                       # number of ReadReq miss cycles
system.l2c.ReadReq_miss_latency::cpu2.inst    442043250                       # number of ReadReq miss cycles
system.l2c.ReadReq_miss_latency::cpu2.data    814497000                       # number of ReadReq miss cycles
system.l2c.ReadReq_miss_latency::total     1778277250                       # number of ReadReq miss cycles
system.l2c.UpgradeReq_miss_latency::cpu1.data      2652136                       # number of UpgradeReq miss cycles
system.l2c.UpgradeReq_miss_latency::cpu2.data      4441809                       # number of UpgradeReq miss cycles
system.l2c.UpgradeReq_miss_latency::total      7093945                       # number of UpgradeReq miss cycles
system.l2c.ReadExReq_miss_latency::cpu1.data   1942003664                       # number of ReadExReq miss cycles
system.l2c.ReadExReq_miss_latency::cpu2.data   2343046915                       # number of ReadExReq miss cycles
system.l2c.ReadExReq_miss_latency::total   4285050579                       # number of ReadExReq miss cycles
system.l2c.demand_miss_latency::cpu1.itb.walker        74500                       # number of demand (read+write) miss cycles
system.l2c.demand_miss_latency::cpu1.inst    150329750                       # number of demand (read+write) miss cycles
system.l2c.demand_miss_latency::cpu1.data   2309689164                       # number of demand (read+write) miss cycles
system.l2c.demand_miss_latency::cpu2.dtb.walker      3647250                       # number of demand (read+write) miss cycles
system.l2c.demand_miss_latency::cpu2.inst    442043250                       # number of demand (read+write) miss cycles
system.l2c.demand_miss_latency::cpu2.data   3157543915                       # number of demand (read+write) miss cycles
system.l2c.demand_miss_latency::total      6063327829                       # number of demand (read+write) miss cycles
system.l2c.overall_miss_latency::cpu1.itb.walker        74500                       # number of overall miss cycles
system.l2c.overall_miss_latency::cpu1.inst    150329750                       # number of overall miss cycles
system.l2c.overall_miss_latency::cpu1.data   2309689164                       # number of overall miss cycles
system.l2c.overall_miss_latency::cpu2.dtb.walker      3647250                       # number of overall miss cycles
system.l2c.overall_miss_latency::cpu2.inst    442043250                       # number of overall miss cycles
system.l2c.overall_miss_latency::cpu2.data   3157543915                       # number of overall miss cycles
system.l2c.overall_miss_latency::total     6063327829                       # number of overall miss cycles
system.l2c.ReadReq_accesses::cpu0.dtb.walker        21885                       # number of ReadReq accesses(hits+misses)
system.l2c.ReadReq_accesses::cpu0.itb.walker        11417                       # number of ReadReq accesses(hits+misses)
system.l2c.ReadReq_accesses::cpu0.inst         328515                       # number of ReadReq accesses(hits+misses)
system.l2c.ReadReq_accesses::cpu0.data         514889                       # number of ReadReq accesses(hits+misses)
system.l2c.ReadReq_accesses::cpu1.dtb.walker        12632                       # number of ReadReq accesses(hits+misses)
system.l2c.ReadReq_accesses::cpu1.itb.walker         6596                       # number of ReadReq accesses(hits+misses)
system.l2c.ReadReq_accesses::cpu1.inst         162109                       # number of ReadReq accesses(hits+misses)
system.l2c.ReadReq_accesses::cpu1.data         229125                       # number of ReadReq accesses(hits+misses)
system.l2c.ReadReq_accesses::cpu2.dtb.walker        53752                       # number of ReadReq accesses(hits+misses)
system.l2c.ReadReq_accesses::cpu2.itb.walker        12539                       # number of ReadReq accesses(hits+misses)
system.l2c.ReadReq_accesses::cpu2.inst         376279                       # number of ReadReq accesses(hits+misses)
system.l2c.ReadReq_accesses::cpu2.data         602946                       # number of ReadReq accesses(hits+misses)
system.l2c.ReadReq_accesses::total            2332684                       # number of ReadReq accesses(hits+misses)
system.l2c.WriteReq_accesses::cpu0.itb.walker            2                       # number of WriteReq accesses(hits+misses)
system.l2c.WriteReq_accesses::total                 2                       # number of WriteReq accesses(hits+misses)
system.l2c.Writeback_accesses::writebacks      1547592                       # number of Writeback accesses(hits+misses)
system.l2c.Writeback_accesses::total          1547592                       # number of Writeback accesses(hits+misses)
system.l2c.UpgradeReq_accesses::cpu0.data          892                       # number of UpgradeReq accesses(hits+misses)
system.l2c.UpgradeReq_accesses::cpu1.data          299                       # number of UpgradeReq accesses(hits+misses)
system.l2c.UpgradeReq_accesses::cpu2.data          473                       # number of UpgradeReq accesses(hits+misses)
system.l2c.UpgradeReq_accesses::total            1664                       # number of UpgradeReq accesses(hits+misses)
system.l2c.ReadExReq_accesses::cpu0.data       133068                       # number of ReadExReq accesses(hits+misses)
system.l2c.ReadExReq_accesses::cpu1.data        63209                       # number of ReadExReq accesses(hits+misses)
system.l2c.ReadExReq_accesses::cpu2.data        95170                       # number of ReadExReq accesses(hits+misses)
system.l2c.ReadExReq_accesses::total           291447                       # number of ReadExReq accesses(hits+misses)
system.l2c.demand_accesses::cpu0.dtb.walker        21885                       # number of demand (read+write) accesses
system.l2c.demand_accesses::cpu0.itb.walker        11419                       # number of demand (read+write) accesses
system.l2c.demand_accesses::cpu0.inst          328515                       # number of demand (read+write) accesses
system.l2c.demand_accesses::cpu0.data          647957                       # number of demand (read+write) accesses
system.l2c.demand_accesses::cpu1.dtb.walker        12632                       # number of demand (read+write) accesses
system.l2c.demand_accesses::cpu1.itb.walker         6596                       # number of demand (read+write) accesses
system.l2c.demand_accesses::cpu1.inst          162109                       # number of demand (read+write) accesses
system.l2c.demand_accesses::cpu1.data          292334                       # number of demand (read+write) accesses
system.l2c.demand_accesses::cpu2.dtb.walker        53752                       # number of demand (read+write) accesses
system.l2c.demand_accesses::cpu2.itb.walker        12539                       # number of demand (read+write) accesses
system.l2c.demand_accesses::cpu2.inst          376279                       # number of demand (read+write) accesses
system.l2c.demand_accesses::cpu2.data          698116                       # number of demand (read+write) accesses
system.l2c.demand_accesses::total             2624133                       # number of demand (read+write) accesses
system.l2c.overall_accesses::cpu0.dtb.walker        21885                       # number of overall (read+write) accesses
system.l2c.overall_accesses::cpu0.itb.walker        11419                       # number of overall (read+write) accesses
system.l2c.overall_accesses::cpu0.inst         328515                       # number of overall (read+write) accesses
system.l2c.overall_accesses::cpu0.data         647957                       # number of overall (read+write) accesses
system.l2c.overall_accesses::cpu1.dtb.walker        12632                       # number of overall (read+write) accesses
system.l2c.overall_accesses::cpu1.itb.walker         6596                       # number of overall (read+write) accesses
system.l2c.overall_accesses::cpu1.inst         162109                       # number of overall (read+write) accesses
system.l2c.overall_accesses::cpu1.data         292334                       # number of overall (read+write) accesses
system.l2c.overall_accesses::cpu2.dtb.walker        53752                       # number of overall (read+write) accesses
system.l2c.overall_accesses::cpu2.itb.walker        12539                       # number of overall (read+write) accesses
system.l2c.overall_accesses::cpu2.inst         376279                       # number of overall (read+write) accesses
system.l2c.overall_accesses::cpu2.data         698116                       # number of overall (read+write) accesses
system.l2c.overall_accesses::total            2624133                       # number of overall (read+write) accesses
system.l2c.ReadReq_miss_rate::cpu0.itb.walker     0.000350                       # miss rate for ReadReq accesses
system.l2c.ReadReq_miss_rate::cpu0.inst      0.022608                       # miss rate for ReadReq accesses
system.l2c.ReadReq_miss_rate::cpu0.data      0.033990                       # miss rate for ReadReq accesses
system.l2c.ReadReq_miss_rate::cpu1.itb.walker     0.000152                       # miss rate for ReadReq accesses
system.l2c.ReadReq_miss_rate::cpu1.inst      0.012535                       # miss rate for ReadReq accesses
system.l2c.ReadReq_miss_rate::cpu1.data      0.020984                       # miss rate for ReadReq accesses
system.l2c.ReadReq_miss_rate::cpu2.dtb.walker     0.000781                       # miss rate for ReadReq accesses
system.l2c.ReadReq_miss_rate::cpu2.inst      0.015069                       # miss rate for ReadReq accesses
system.l2c.ReadReq_miss_rate::cpu2.data      0.017388                       # miss rate for ReadReq accesses
system.l2c.ReadReq_miss_rate::total          0.020564                       # miss rate for ReadReq accesses
system.l2c.UpgradeReq_miss_rate::cpu0.data     0.858744                       # miss rate for UpgradeReq accesses
system.l2c.UpgradeReq_miss_rate::cpu1.data     0.836120                       # miss rate for UpgradeReq accesses
system.l2c.UpgradeReq_miss_rate::cpu2.data     0.811839                       # miss rate for UpgradeReq accesses
system.l2c.UpgradeReq_miss_rate::total       0.841346                       # miss rate for UpgradeReq accesses
system.l2c.ReadExReq_miss_rate::cpu0.data     0.522552                       # miss rate for ReadExReq accesses
system.l2c.ReadExReq_miss_rate::cpu1.data     0.447705                       # miss rate for ReadExReq accesses
system.l2c.ReadExReq_miss_rate::cpu2.data     0.342576                       # miss rate for ReadExReq accesses
system.l2c.ReadExReq_miss_rate::total        0.447550                       # miss rate for ReadExReq accesses
system.l2c.demand_miss_rate::cpu0.itb.walker     0.000350                       # miss rate for demand accesses
system.l2c.demand_miss_rate::cpu0.inst       0.022608                       # miss rate for demand accesses
system.l2c.demand_miss_rate::cpu0.data       0.134324                       # miss rate for demand accesses
system.l2c.demand_miss_rate::cpu1.itb.walker     0.000152                       # miss rate for demand accesses
system.l2c.demand_miss_rate::cpu1.inst       0.012535                       # miss rate for demand accesses
system.l2c.demand_miss_rate::cpu1.data       0.113251                       # miss rate for demand accesses
system.l2c.demand_miss_rate::cpu2.dtb.walker     0.000781                       # miss rate for demand accesses
system.l2c.demand_miss_rate::cpu2.inst       0.015069                       # miss rate for demand accesses
system.l2c.demand_miss_rate::cpu2.data       0.061719                       # miss rate for demand accesses
system.l2c.demand_miss_rate::total           0.067987                       # miss rate for demand accesses
system.l2c.overall_miss_rate::cpu0.itb.walker     0.000350                       # miss rate for overall accesses
system.l2c.overall_miss_rate::cpu0.inst      0.022608                       # miss rate for overall accesses
system.l2c.overall_miss_rate::cpu0.data      0.134324                       # miss rate for overall accesses
system.l2c.overall_miss_rate::cpu1.itb.walker     0.000152                       # miss rate for overall accesses
system.l2c.overall_miss_rate::cpu1.inst      0.012535                       # miss rate for overall accesses
system.l2c.overall_miss_rate::cpu1.data      0.113251                       # miss rate for overall accesses
system.l2c.overall_miss_rate::cpu2.dtb.walker     0.000781                       # miss rate for overall accesses
system.l2c.overall_miss_rate::cpu2.inst      0.015069                       # miss rate for overall accesses
system.l2c.overall_miss_rate::cpu2.data      0.061719                       # miss rate for overall accesses
system.l2c.overall_miss_rate::total          0.067987                       # miss rate for overall accesses
system.l2c.ReadReq_avg_miss_latency::cpu1.itb.walker        74500                       # average ReadReq miss latency
system.l2c.ReadReq_avg_miss_latency::cpu1.inst 73981.176181                       # average ReadReq miss latency
system.l2c.ReadReq_avg_miss_latency::cpu1.data 76473.689684                       # average ReadReq miss latency
system.l2c.ReadReq_avg_miss_latency::cpu2.dtb.walker 86839.285714                       # average ReadReq miss latency
system.l2c.ReadReq_avg_miss_latency::cpu2.inst 77961.772487                       # average ReadReq miss latency
system.l2c.ReadReq_avg_miss_latency::cpu2.data 77689.526898                       # average ReadReq miss latency
system.l2c.ReadReq_avg_miss_latency::total 37071.384644                       # average ReadReq miss latency
system.l2c.UpgradeReq_avg_miss_latency::cpu1.data 10608.544000                       # average UpgradeReq miss latency
system.l2c.UpgradeReq_avg_miss_latency::cpu2.data 11567.210938                       # average UpgradeReq miss latency
system.l2c.UpgradeReq_avg_miss_latency::total  5067.103571                       # average UpgradeReq miss latency
system.l2c.ReadExReq_avg_miss_latency::cpu1.data 68624.462490                       # average ReadExReq miss latency
system.l2c.ReadExReq_avg_miss_latency::cpu2.data 71865.991320                       # average ReadExReq miss latency
system.l2c.ReadExReq_avg_miss_latency::total 32851.495964                       # average ReadExReq miss latency
system.l2c.demand_avg_miss_latency::cpu1.itb.walker        74500                       # average overall miss latency
system.l2c.demand_avg_miss_latency::cpu1.inst 73981.176181                       # average overall miss latency
system.l2c.demand_avg_miss_latency::cpu1.data 69764.375026                       # average overall miss latency
system.l2c.demand_avg_miss_latency::cpu2.dtb.walker 86839.285714                       # average overall miss latency
system.l2c.demand_avg_miss_latency::cpu2.inst 77961.772487                       # average overall miss latency
system.l2c.demand_avg_miss_latency::cpu2.data 73282.983615                       # average overall miss latency
system.l2c.demand_avg_miss_latency::total 33986.120585                       # average overall miss latency
system.l2c.overall_avg_miss_latency::cpu1.itb.walker        74500                       # average overall miss latency
system.l2c.overall_avg_miss_latency::cpu1.inst 73981.176181                       # average overall miss latency
system.l2c.overall_avg_miss_latency::cpu1.data 69764.375026                       # average overall miss latency
system.l2c.overall_avg_miss_latency::cpu2.dtb.walker 86839.285714                       # average overall miss latency
system.l2c.overall_avg_miss_latency::cpu2.inst 77961.772487                       # average overall miss latency
system.l2c.overall_avg_miss_latency::cpu2.data 73282.983615                       # average overall miss latency
system.l2c.overall_avg_miss_latency::total 33986.120585                       # average overall miss latency
system.l2c.blocked_cycles::no_mshrs                 0                       # number of cycles access was blocked
system.l2c.blocked_cycles::no_targets               0                       # number of cycles access was blocked
system.l2c.blocked::no_mshrs                        0                       # number of cycles access was blocked
system.l2c.blocked::no_targets                      0                       # number of cycles access was blocked
system.l2c.avg_blocked_cycles::no_mshrs           nan                       # average number of cycles each access was blocked
system.l2c.avg_blocked_cycles::no_targets          nan                       # average number of cycles each access was blocked
system.l2c.fast_writes                              0                       # number of fast writes performed
system.l2c.cache_copies                             0                       # number of cache copies performed
system.l2c.writebacks::writebacks               96569                       # number of writebacks
system.l2c.writebacks::total                    96569                       # number of writebacks
system.l2c.ReadReq_mshr_misses::cpu1.itb.walker            1                       # number of ReadReq MSHR misses
system.l2c.ReadReq_mshr_misses::cpu1.inst         2032                       # number of ReadReq MSHR misses
system.l2c.ReadReq_mshr_misses::cpu1.data         4808                       # number of ReadReq MSHR misses
system.l2c.ReadReq_mshr_misses::cpu2.dtb.walker           42                       # number of ReadReq MSHR misses
system.l2c.ReadReq_mshr_misses::cpu2.inst         5670                       # number of ReadReq MSHR misses
system.l2c.ReadReq_mshr_misses::cpu2.data        10484                       # number of ReadReq MSHR misses
system.l2c.ReadReq_mshr_misses::total           23037                       # number of ReadReq MSHR misses
system.l2c.UpgradeReq_mshr_misses::cpu1.data          250                       # number of UpgradeReq MSHR misses
system.l2c.UpgradeReq_mshr_misses::cpu2.data          384                       # number of UpgradeReq MSHR misses
system.l2c.UpgradeReq_mshr_misses::total          634                       # number of UpgradeReq MSHR misses
system.l2c.ReadExReq_mshr_misses::cpu1.data        28299                       # number of ReadExReq MSHR misses
system.l2c.ReadExReq_mshr_misses::cpu2.data        32603                       # number of ReadExReq MSHR misses
system.l2c.ReadExReq_mshr_misses::total         60902                       # number of ReadExReq MSHR misses
system.l2c.demand_mshr_misses::cpu1.itb.walker            1                       # number of demand (read+write) MSHR misses
system.l2c.demand_mshr_misses::cpu1.inst         2032                       # number of demand (read+write) MSHR misses
system.l2c.demand_mshr_misses::cpu1.data        33107                       # number of demand (read+write) MSHR misses
[...]
system.cpu2.iq.FU_type_0::No_OpClass            75484      0.03%      0.03% # Type of FU issued
system.cpu2.iq.FU_type_0::IntAlu            263736524     96.30%     96.32% # Type of FU issued
system.cpu2.iq.FU_type_0::IntMult               54819      0.02%     96.34% # Type of FU issued
system.cpu2.iq.FU_type_0::IntDiv                47031      0.02%     96.36% # Type of FU issued
system.cpu2.iq.FU_type_0::FloatAdd                  0      0.00%     96.36% # Type of FU issued
system.cpu2.iq.FU_type_0::FloatCmp                  0      0.00%     96.36% # Type of FU issued
system.cpu2.iq.FU_type_0::FloatCvt                  0      0.00%     96.36% # Type of FU issued
system.cpu2.iq.FU_type_0::FloatMult                 0      0.00%     96.36% # Type of FU issued
system.cpu2.iq.FU_type_0::FloatDiv                  0      0.00%     96.36% # Type of FU issued
system.cpu2.iq.FU_type_0::FloatSqrt                 0      0.00%     96.36% # Type of FU issued
system.cpu2.iq.FU_type_0::SimdAdd                   0      0.00%     96.36% # Type of FU issued
system.cpu2.iq.FU_type_0::SimdAddAcc                0      0.00%     96.36% # Type of FU issued
system.cpu2.iq.FU_type_0::SimdAlu                   0      0.00%     96.36% # Type of FU issued
system.cpu2.iq.FU_type_0::SimdCmp                   0      0.00%     96.36% # Type of FU issued
system.cpu2.iq.FU_type_0::SimdCvt                   0      0.00%     96.36% # Type of FU issued
system.cpu2.iq.FU_type_0::SimdMisc                  0      0.00%     96.36% # Type of FU issued
system.cpu2.iq.FU_type_0::SimdMult                  0      0.00%     96.36% # Type of FU issued
system.cpu2.iq.FU_type_0::SimdMultAcc               0      0.00%     96.36% # Type of FU issued
system.cpu2.iq.FU_type_0::SimdShift                 0      0.00%     96.36% # Type of FU issued
system.cpu2.iq.FU_type_0::SimdShiftAcc              0      0.00%     96.36% # Type of FU issued
system.cpu2.iq.FU_type_0::SimdSqrt                  0      0.00%     96.36% # Type of FU issued
system.cpu2.iq.FU_type_0::SimdFloatAdd              0      0.00%     96.36% # Type of FU issued
system.cpu2.iq.FU_type_0::SimdFloatAlu              0      0.00%     96.36% # Type of FU issued
system.cpu2.iq.FU_type_0::SimdFloatCmp              0      0.00%     96.36% # Type of FU issued
system.cpu2.iq.FU_type_0::SimdFloatCvt              0      0.00%     96.36% # Type of FU issued
system.cpu2.iq.FU_type_0::SimdFloatDiv              0      0.00%     96.36% # Type of FU issued
system.cpu2.iq.FU_type_0::SimdFloatMisc             0      0.00%     96.36% # Type of FU issued
system.cpu2.iq.FU_type_0::SimdFloatMult             0      0.00%     96.36% # Type of FU issued
system.cpu2.iq.FU_type_0::SimdFloatMultAcc            0      0.00%     96.36% # Type of FU issued
system.cpu2.iq.FU_type_0::SimdFloatSqrt             0      0.00%     96.36% # Type of FU issued
system.cpu2.iq.FU_type_0::MemRead             6686249      2.44%     98.80% # Type of FU issued
system.cpu2.iq.FU_type_0::MemWrite            3278477      1.20%    100.00% # Type of FU issued
system.cpu2.iq.FU_type_0::IprAccess                 0      0.00%    100.00% # Type of FU issued
system.cpu2.iq.FU_type_0::InstPrefetch              0      0.00%    100.00% # Type of FU issued
system.cpu2.iq.FU_type_0::total             273878584                       # Type of FU issued
system.cpu2.iq.rate                          1.789950                       # Inst issue rate
system.cpu2.iq.fu_busy_cnt                    2036382                       # FU busy when requested
system.cpu2.iq.fu_busy_rate                  0.007435                       # FU busy rate (busy events/executed inst)
system.cpu2.iq.int_inst_queue_reads         701925596                       # Number of integer instruction queue reads
system.cpu2.iq.int_inst_queue_writes        284608270                       # Number of integer instruction queue writes
system.cpu2.iq.int_inst_queue_wakeup_accesses    272313229                       # Number of integer instruction queue wakeup accesses
system.cpu2.iq.fp_inst_queue_reads                 61                       # Number of floating instruction queue reads
system.cpu2.iq.fp_inst_queue_writes                68                       # Number of floating instruction queue writes
system.cpu2.iq.fp_inst_queue_wakeup_accesses           16                       # Number of floating instruction queue wakeup accesses
system.cpu2.iq.int_alu_accesses             275839453                       # Number of integer alu accesses
system.cpu2.iq.fp_alu_accesses                     29                       # Number of floating point alu accesses
system.cpu2.iew.lsq.thread0.forwLoads          685704                       # Number of loads that had data forwarded from stores
system.cpu2.iew.lsq.thread0.invAddrLoads            0                       # Number of loads ignored due to an invalid address
system.cpu2.iew.lsq.thread0.squashedLoads      1161006                       # Number of loads squashed
system.cpu2.iew.lsq.thread0.ignoredResponses         6104                       # Number of memory responses ignored because the instruction is squashed
system.cpu2.iew.lsq.thread0.memOrderViolation         4803                       # Number of memory ordering violations
system.cpu2.iew.lsq.thread0.squashedStores       634153                       # Number of stores squashed
system.cpu2.iew.lsq.thread0.invAddrSwpfs            0                       # Number of software prefetches ignored due to an invalid address
system.cpu2.iew.lsq.thread0.blockedLoads            0                       # Number of blocked loads due to partial load-store forwarding
system.cpu2.iew.lsq.thread0.rescheduledLoads       755552                       # Number of loads that were rescheduled
system.cpu2.iew.lsq.thread0.cacheBlocked        21313                       # Number of times an access to memory failed due to the cache being blocked
system.cpu2.iew.iewIdleCycles                       0                       # Number of cycles IEW is idle
system.cpu2.iew.iewSquashCycles                325657                       # Number of cycles IEW is squashing
system.cpu2.iew.iewBlockCycles               70767994                       # Number of cycles IEW is blocking
system.cpu2.iew.iewUnblockCycles              1741893                       # Number of cycles IEW is unblocking
system.cpu2.iew.iewDispatchedInsts          276239908                       # Number of instructions dispatched to IQ
system.cpu2.iew.iewDispSquashedInsts            40444                       # Number of squashed instructions skipped by dispatch
system.cpu2.iew.iewDispLoadInsts              6338884                       # Number of dispatched load instructions
system.cpu2.iew.iewDispStoreInsts             3553328                       # Number of dispatched store instructions
system.cpu2.iew.iewDispNonSpecInsts            236248                       # Number of dispatched non-speculative instructions
system.cpu2.iew.iewIQFullEvents                194416                       # Number of times the IQ has become full, causing a stall
system.cpu2.iew.iewLSQFullEvents              1250638                       # Number of times the LSQ has become full, causing a stall
system.cpu2.iew.memOrderViolationEvents          4803                       # Number of memory order violations
system.cpu2.iew.predictedTakenIncorrect        177191                       # Number of branches that were predicted taken incorrectly
system.cpu2.iew.predictedNotTakenIncorrect       184398                       # Number of branches that were predicted not taken incorrectly
system.cpu2.iew.branchMispredicts              361589                       # Number of branch mispredicts detected at execute
system.cpu2.iew.iewExecutedInsts            273320009                       # Number of executed instructions
system.cpu2.iew.iewExecLoadInsts              6554812                       # Number of load instructions executed
system.cpu2.iew.iewExecSquashedInsts           510377                       # Number of squashed instructions skipped in execute
system.cpu2.iew.exec_swp                            0                       # number of swp insts executed
system.cpu2.iew.exec_nop                            0                       # number of nop insts executed
system.cpu2.iew.exec_refs                     9748811                       # number of memory reference insts executed
system.cpu2.iew.exec_branches                27755327                       # Number of branches executed
system.cpu2.iew.exec_stores                   3193999                       # Number of stores executed
system.cpu2.iew.exec_rate                    1.786300                       # Inst execution rate
system.cpu2.iew.wb_sent                     273134840                       # cumulative count of insts sent to commit
system.cpu2.iew.wb_count                    272313245                       # cumulative count of insts written-back
system.cpu2.iew.wb_producers                212432379                       # num instructions producing a value
system.cpu2.iew.wb_consumers                348339663                       # num instructions consuming a value
system.cpu2.iew.wb_penalized                        0                       # number of instrctions required to write to 'other' IQ
system.cpu2.iew.wb_rate                      1.779720                       # insts written-back per cycle
system.cpu2.iew.wb_fanout                    0.609843                       # average fanout of values written-back
system.cpu2.iew.wb_penalized_rate                   0                       # fraction of instructions written-back that wrote to 'other' IQ
system.cpu2.commit.commitSquashedInsts        8691419                       # The number of squashed insts skipped by commit
system.cpu2.commit.commitNonSpecStalls         351686                       # The number of times commit has been forced to stall to communicate backwards
system.cpu2.commit.branchMispredicts           314047                       # The number of times a branch was mispredicted
system.cpu2.commit.committed_per_cycle::samples    150733678                       # Number of insts commited each cycle
system.cpu2.commit.committed_per_cycle::mean     1.774964                       # Number of insts commited each cycle
system.cpu2.commit.committed_per_cycle::stdev     2.652543                       # Number of insts commited each cycle
system.cpu2.commit.committed_per_cycle::underflows            0      0.00%      0.00% # Number of insts commited each cycle
system.cpu2.commit.committed_per_cycle::0     93656646     62.13%     62.13% # Number of insts commited each cycle
system.cpu2.commit.committed_per_cycle::1      4148238      2.75%     64.89% # Number of insts commited each cycle
system.cpu2.commit.committed_per_cycle::2      1235888      0.82%     65.71% # Number of insts commited each cycle
system.cpu2.commit.committed_per_cycle::3     24514613     16.26%     81.97% # Number of insts commited each cycle
system.cpu2.commit.committed_per_cycle::4      1002757      0.67%     82.63% # Number of insts commited each cycle
system.cpu2.commit.committed_per_cycle::5       665638      0.44%     83.08% # Number of insts commited each cycle
system.cpu2.commit.committed_per_cycle::6       467092      0.31%     83.39% # Number of insts commited each cycle
system.cpu2.commit.committed_per_cycle::7     23101150     15.33%     98.71% # Number of insts commited each cycle
system.cpu2.commit.committed_per_cycle::8      1941656      1.29%    100.00% # Number of insts commited each cycle
system.cpu2.commit.committed_per_cycle::overflows            0      0.00%    100.00% # Number of insts commited each cycle
system.cpu2.commit.committed_per_cycle::min_value            0                       # Number of insts commited each cycle
system.cpu2.commit.committed_per_cycle::max_value            8                       # Number of insts commited each cycle
system.cpu2.commit.committed_per_cycle::total    150733678                       # Number of insts commited each cycle
system.cpu2.commit.committedInsts           135526613                       # Number of instructions committed
system.cpu2.commit.committedOps             267546921                       # Number of ops (including micro ops) committed
system.cpu2.commit.swp_count                        0                       # Number of s/w prefetches committed
system.cpu2.commit.refs                       8097053                       # Number of memory references committed
system.cpu2.commit.loads                      5177878                       # Number of loads committed
system.cpu2.commit.membars                     162019                       # Number of memory barriers committed
system.cpu2.commit.branches                  27358633                       # Number of branches committed
system.cpu2.commit.fp_insts                         0                       # Number of committed floating point instructions.
system.cpu2.commit.int_insts                244351653                       # Number of committed integer instructions.
system.cpu2.commit.function_calls              425746                       # Number of function calls committed.
system.cpu2.commit.op_class_0::No_OpClass        44568      0.02%      0.02% # Class of committed instruction
system.cpu2.commit.op_class_0::IntAlu       259307312     96.92%     96.94% # Class of committed instruction
system.cpu2.commit.op_class_0::IntMult          52493      0.02%     96.96% # Class of committed instruction
system.cpu2.commit.op_class_0::IntDiv           45495      0.02%     96.97% # Class of committed instruction
system.cpu2.commit.op_class_0::FloatAdd             0      0.00%     96.97% # Class of committed instruction
system.cpu2.commit.op_class_0::FloatCmp             0      0.00%     96.97% # Class of committed instruction
system.cpu2.commit.op_class_0::FloatCvt             0      0.00%     96.97% # Class of committed instruction
system.cpu2.commit.op_class_0::FloatMult            0      0.00%     96.97% # Class of committed instruction
system.cpu2.commit.op_class_0::FloatDiv             0      0.00%     96.97% # Class of committed instruction
system.cpu2.commit.op_class_0::FloatSqrt            0      0.00%     96.97% # Class of committed instruction
system.cpu2.commit.op_class_0::SimdAdd              0      0.00%     96.97% # Class of committed instruction
system.cpu2.commit.op_class_0::SimdAddAcc            0      0.00%     96.97% # Class of committed instruction
system.cpu2.commit.op_class_0::SimdAlu              0      0.00%     96.97% # Class of committed instruction
system.cpu2.commit.op_class_0::SimdCmp              0      0.00%     96.97% # Class of committed instruction
system.cpu2.commit.op_class_0::SimdCvt              0      0.00%     96.97% # Class of committed instruction
system.cpu2.commit.op_class_0::SimdMisc             0      0.00%     96.97% # Class of committed instruction
system.cpu2.commit.op_class_0::SimdMult             0      0.00%     96.97% # Class of committed instruction
system.cpu2.commit.op_class_0::SimdMultAcc            0      0.00%     96.97% # Class of committed instruction
system.cpu2.commit.op_class_0::SimdShift            0      0.00%     96.97% # Class of committed instruction
system.cpu2.commit.op_class_0::SimdShiftAcc            0      0.00%     96.97% # Class of committed instruction
system.cpu2.commit.op_class_0::SimdSqrt             0      0.00%     96.97% # Class of committed instruction
system.cpu2.commit.op_class_0::SimdFloatAdd            0      0.00%     96.97% # Class of committed instruction
system.cpu2.commit.op_class_0::SimdFloatAlu            0      0.00%     96.97% # Class of committed instruction
system.cpu2.commit.op_class_0::SimdFloatCmp            0      0.00%     96.97% # Class of committed instruction
system.cpu2.commit.op_class_0::SimdFloatCvt            0      0.00%     96.97% # Class of committed instruction
system.cpu2.commit.op_class_0::SimdFloatDiv            0      0.00%     96.97% # Class of committed instruction
system.cpu2.commit.op_class_0::SimdFloatMisc            0      0.00%     96.97% # Class of committed instruction
system.cpu2.commit.op_class_0::SimdFloatMult            0      0.00%     96.97% # Class of committed instruction
system.cpu2.commit.op_class_0::SimdFloatMultAcc            0      0.00%     96.97% # Class of committed instruction
system.cpu2.commit.op_class_0::SimdFloatSqrt            0      0.00%     96.97% # Class of committed instruction
system.cpu2.commit.op_class_0::MemRead        5177878      1.94%     98.91% # Class of committed instruction
system.cpu2.commit.op_class_0::MemWrite       2919175      1.09%    100.00% # Class of committed instruction
system.cpu2.commit.op_class_0::IprAccess            0      0.00%    100.00% # Class of committed instruction
system.cpu2.commit.op_class_0::InstPrefetch            0      0.00%    100.00% # Class of committed instruction
system.cpu2.commit.op_class_0::total        267546921                       # Class of committed instruction
system.cpu2.commit.bw_lim_events              1941656                       # number cycles where commit BW limit reached
system.cpu2.commit.bw_limited                       0                       # number of insts not committed due to BW limits
system.cpu2.rob.rob_reads                   425004820                       # The number of ROB reads
system.cpu2.rob.rob_writes                  553782312                       # The number of ROB writes
system.cpu2.timesIdled                         113608                       # Number of times that the entire CPU went into an idle state and unscheduled itself
system.cpu2.idleCycles                         975500                       # Total number of cycles that the CPU has spent unscheduled due to idling
system.cpu2.quiesceCycles                  4910108147                       # Total number of cycles that CPU has spent quiesced or waiting for an interrupt
system.cpu2.committedInsts                  135526613                       # Number of Instructions Simulated
system.cpu2.committedOps                    267546921                       # Number of Ops (including micro ops) Simulated
system.cpu2.cpi                              1.128996                       # CPI: Cycles Per Instruction
system.cpu2.cpi_total                        1.128996                       # CPI: Total CPI of All Threads
system.cpu2.ipc                              0.885742                       # IPC: Instructions Per Cycle
system.cpu2.ipc_total                        0.885742                       # IPC: Total IPC of All Threads
system.cpu2.int_regfile_reads               363608614                       # number of integer regfile reads
system.cpu2.int_regfile_writes              218247524                       # number of integer regfile writes
system.cpu2.fp_regfile_reads                    72984                       # number of floating regfile reads
system.cpu2.fp_regfile_writes                   72968                       # number of floating regfile writes
system.cpu2.cc_regfile_reads                138904210                       # number of cc regfile reads
system.cpu2.cc_regfile_writes               106846664                       # number of cc regfile writes
system.cpu2.misc_regfile_reads               88678814                       # number of misc regfile reads
system.cpu2.misc_regfile_writes                129757                       # number of misc regfile writes
system.cpu2.kern.inst.arm                           0                       # number of arm instructions executed
system.cpu2.kern.inst.quiesce                       0                       # number of quiesce instructions executed

---------- End Simulation Statistics   ----------
