
---------- Begin Simulation Statistics ----------
host_mem_usage                                 225148                       # Number of bytes of host memory used
host_seconds                                     0.20                       # Real time elapsed on the host
host_tick_rate                                1244529                       # Simulator tick rate (ticks/s)
sim_freq                                   1000000000                       # Frequency of simulated ticks
sim_seconds                                  0.000255                       # Number of seconds simulated
sim_ticks                                      254811                       # Number of ticks simulated

---------- End Simulation Statistics   ----------
