McPAT (version 0.8 of Aug, 2010) is computing the target processor...
 

McPAT (version 0.8 of Aug, 2010) results  (current print level is 5)
*****************************************************************************************
  Technology 40 nm
  Using Long Channel Devices When Appropriate
  Interconnect metal projection = conservative interconnect technology projection
  Target Clock Rate (MHz) 1000

*****************************************************************************************
  System:
    Area = 74.7084 mm^2
    Peak Dynamic Power = 2.97133 W
    Subthreshold Leakage Power = 20.6516 W
    Gate Leakage Power = 0.728504 W
    Runtime Dynamic Power = 1.61344 W
    Runtime Dynamic Energy = 2.30929 J
    Total Runtime Energy = 32.9103 J

      Core 0:
        Area = 5.11302 mm^2
        Peak Dynamic Power = 0.725551 W
        Subthreshold Leakage Power = 0.910011 W
        Gate Leakage Power = 0.0793208 W
        Runtime Dynamic Power = 0.391748 W
        Runtime Dynamic Energy = 0.560703 J
        Total Runtime Energy = 1.97672 J

          Instruction Fetch Unit:
            Area = 1.07061 mm^2
            Peak Dynamic Power = 0.069507 W
            Subthreshold Leakage Power = 0.0768543 W
            Gate Leakage Power = 0.00183262 W
            Runtime Dynamic Power = 0.0865869 W
            Runtime Dynamic Energy = 0.123931 J
            Total Runtime Energy = 0.236554 J

              Instruction Cache:
                Area = 1.06646 mm^2
                Peak Dynamic Power = 0.0345629 W
                Subthreshold Leakage Power = 0.0723979 W
                Gate Leakage Power = 0.00168831 W
                Runtime Dynamic Power = 0.0558603 W
                Runtime Dynamic Energy = 0.079952 J
                Total Runtime Energy = 0.185991 J

                  Data and Tag Arrays:
                    Area = 0.259164 mm^2
                    Peak Dynamic Power = 0 W
                    Subthreshold Leakage Power = 0.066312 W
                    Gate Leakage Power = 0.00138196 W
                    Runtime Dynamic Power = 0.0558514 W
                    Runtime Dynamic Energy = 0.0799392 J
                    Total Runtime Energy = 0.176829 J

                  Miss Buffer:
                    Area = 0.315209 mm^2
                    Peak Dynamic Power = 0.0124784 W
                    Subthreshold Leakage Power = 0.00218421 W
                    Gate Leakage Power = 0.000109941 W
                    Runtime Dynamic Power = 3.24581e-06 W
                    Runtime Dynamic Energy = 4.64568e-06 J
                    Total Runtime Energy = 0.00328823 J

                  Fill Buffer:
                    Area = 0.246043 mm^2
                    Peak Dynamic Power = 0.0110423 W
                    Subthreshold Leakage Power = 0.00195087 W
                    Gate Leakage Power = 9.82028e-05 W
                    Runtime Dynamic Power = 2.84693e-06 W
                    Runtime Dynamic Energy = 4.07477e-06 J
                    Total Runtime Energy = 0.00293688 J

                  Prefetch Buffer:
                    Area = 0.246043 mm^2
                    Peak Dynamic Power = 0.0110423 W
                    Subthreshold Leakage Power = 0.00195087 W
                    Gate Leakage Power = 9.82028e-05 W
                    Runtime Dynamic Power = 2.84693e-06 W
                    Runtime Dynamic Energy = 4.07477e-06 J
                    Total Runtime Energy = 0.00293688 J

              Instruction Buffer:
                Area = 0.00177465 mm^2
                Peak Dynamic Power = 0.00177346 W
                Subthreshold Leakage Power = 0.000334365 W
                Gate Leakage Power = 1.02451e-05 W
                Runtime Dynamic Power = 0.00155941 W
                Runtime Dynamic Energy = 0.00223197 J
                Total Runtime Energy = 0.0027252 J

              Instruction Opcode Decoder:
                Area = 0.000733115 mm^2
                Peak Dynamic Power = 0.0110556 W
                Subthreshold Leakage Power = 0.00127003 W
                Gate Leakage Power = 4.16647e-05 W
                Runtime Dynamic Power = 0.00972126 W
                Runtime Dynamic Energy = 0.0139139 J
                Total Runtime Energy = 0.0157913 J

              Instruction Operand Decoder:
                Area = 0.00018867 mm^2
                Peak Dynamic Power = 0.0110476 W
                Subthreshold Leakage Power = 0.00032028 W
                Gate Leakage Power = 1.08411e-05 W
                Runtime Dynamic Power = 0.00971421 W
                Runtime Dynamic Energy = 0.0139038 J
                Total Runtime Energy = 0.0143777 J

              Instruction Microcode Decoder:
                Area = 0.00144948 mm^2
                Peak Dynamic Power = 0.0110675 W
                Subthreshold Leakage Power = 0.00253168 W
                Gate Leakage Power = 8.15593e-05 W
                Runtime Dynamic Power = 0.00973171 W
                Runtime Dynamic Energy = 0.0139288 J
                Total Runtime Energy = 0.0176691 J

          Load/Store Unit:
            Area = 1.11574 mm^2
            Peak Dynamic Power = 0.0490235 W
            Subthreshold Leakage Power = 0.076641 W
            Gate Leakage Power = 0.00186238 W
            Runtime Dynamic Power = 0.018901 W
            Runtime Dynamic Energy = 0.0270527 J
            Total Runtime Energy = 0.139413 J

              Data Cache:
                Area = 1.06646 mm^2
                Peak Dynamic Power = 0.0345629 W
                Subthreshold Leakage Power = 0.0723979 W
                Gate Leakage Power = 0.00168831 W
                Runtime Dynamic Power = 0.0133885 W
                Runtime Dynamic Energy = 0.0191627 J
                Total Runtime Energy = 0.125201 J

                  Data and Tag Arrays:
                    Area = 0.259164 mm^2
                    Peak Dynamic Power = 0 W
                    Subthreshold Leakage Power = 0.066312 W
                    Gate Leakage Power = 0.00138196 W
                    Runtime Dynamic Power = 0.0132868 W
                    Runtime Dynamic Energy = 0.0190172 J
                    Total Runtime Energy = 0.115907 J

                  Miss Buffer:
                    Area = 0.315209 mm^2
                    Peak Dynamic Power = 0.0124784 W
                    Subthreshold Leakage Power = 0.00218421 W
                    Gate Leakage Power = 0.000109941 W
                    Runtime Dynamic Power = 4.00809e-05 W
                    Runtime Dynamic Energy = 5.73672e-05 J
                    Total Runtime Energy = 0.00334096 J

                  Fill Buffer:
                    Area = 0.246043 mm^2
                    Peak Dynamic Power = 0.0110423 W
                    Subthreshold Leakage Power = 0.00195087 W
                    Gate Leakage Power = 9.82028e-05 W
                    Runtime Dynamic Power = 3.51553e-05 W
                    Runtime Dynamic Energy = 5.03173e-05 J
                    Total Runtime Energy = 0.00298313 J

                  Prefetch Buffer:
                    Area = 0.246043 mm^2
                    Peak Dynamic Power = 0.0110423 W
                    Subthreshold Leakage Power = 0.00195087 W
                    Gate Leakage Power = 9.82028e-05 W
                    Runtime Dynamic Power = 2.64423e-05 W
                    Runtime Dynamic Energy = 3.78464e-05 J
                    Total Runtime Energy = 0.00297065 J

              Store Queue:
                Area = 0.0492795 mm^2
                Peak Dynamic Power = 0.0144605 W
                Subthreshold Leakage Power = 0.00424307 W
                Gate Leakage Power = 0.000174072 W
                Runtime Dynamic Power = 0.00551251 W
                Runtime Dynamic Energy = 0.00788997 J
                Total Runtime Energy = 0.0142122 J

          Memory Management Unit:
            Area = 0.0640137 mm^2
            Peak Dynamic Power = 0.020655 W
            Subthreshold Leakage Power = 0.0107524 W
            Gate Leakage Power = 0.00041319 W
            Runtime Dynamic Power = 0.00953135 W
            Runtime Dynamic Energy = 0.0136421 J
            Total Runtime Energy = 0.0296232 J

              Instruction TLB:
                Area = 0.0196043 mm^2
                Peak Dynamic Power = 0.00880588 W
                Subthreshold Leakage Power = 0.00418736 W
                Gate Leakage Power = 0.000171372 W
                Runtime Dynamic Power = 0.00775934 W
                Runtime Dynamic Energy = 0.0111058 J
                Total Runtime Energy = 0.0173444 J

              Data TLB:
                Area = 0.0444093 mm^2
                Peak Dynamic Power = 0.0118492 W
                Subthreshold Leakage Power = 0.00656505 W
                Gate Leakage Power = 0.000241817 W
                Runtime Dynamic Power = 0.00177201 W
                Runtime Dynamic Energy = 0.00253625 J
                Total Runtime Energy = 0.0122788 J

          Execution Unit:
            Area = 2.22898 mm^2
            Peak Dynamic Power = 0.586365 W
            Subthreshold Leakage Power = 0.497274 W
            Gate Leakage Power = 0.0497488 W
            Runtime Dynamic Power = 0.093407 W
            Runtime Dynamic Energy = 0.133692 J
            Total Runtime Energy = 0.916638 J

              Int Bypass Data:
                Area = 0.00171352 mm^2
                Peak Dynamic Power = 0 W
                Subthreshold Leakage Power = 0 W
                Gate Leakage Power = 0 W
                Runtime Dynamic Power = 1.22872e-09 W
                Runtime Dynamic Energy = 1.75865e-09 J
                Total Runtime Energy = 1.75865e-09 J

              Int Bypass Tag:
                Area = 0.00021419 mm^2
                Peak Dynamic Power = 0 W
                Subthreshold Leakage Power = 0 W
                Gate Leakage Power = 0 W
                Runtime Dynamic Power = 1.53591e-10 W
                Runtime Dynamic Energy = 2.19832e-10 J
                Total Runtime Energy = 2.19832e-10 J

              Mul Bypass Data:
                Area = 0.00383958 mm^2
                Peak Dynamic Power = 0 W
                Subthreshold Leakage Power = 0 W
                Gate Leakage Power = 0 W
                Runtime Dynamic Power = 3.93325e-10 W
                Runtime Dynamic Energy = 5.6296e-10 J
                Total Runtime Energy = 5.6296e-10 J

              Mul Bypass Tag:
                Area = 0.000319965 mm^2
                Peak Dynamic Power = 0 W
                Subthreshold Leakage Power = 0 W
                Gate Leakage Power = 0 W
                Runtime Dynamic Power = 3.27771e-11 W
                Runtime Dynamic Energy = 4.69133e-11 J
                Total Runtime Energy = 4.69133e-11 J

              FP Bypass Data:
                Area = 0.00547065 mm^2
                Peak Dynamic Power = 0 W
                Subthreshold Leakage Power = 0 W
                Gate Leakage Power = 0 W
                Runtime Dynamic Power = 1.12082e-09 W
                Runtime Dynamic Energy = 1.60421e-09 J
                Total Runtime Energy = 1.60421e-09 J

              FP Bypass Tag:
                Area = 0.00050165 mm^2
                Peak Dynamic Power = 0 W
                Subthreshold Leakage Power = 0 W
                Gate Leakage Power = 0 W
                Runtime Dynamic Power = 1.02778e-10 W
                Runtime Dynamic Energy = 1.47104e-10 J
                Total Runtime Energy = 1.47104e-10 J

              Register File Unit:
                Area = 0.0294128 mm^2
                Peak Dynamic Power = 0.0343622 W
                Subthreshold Leakage Power = 0.00191002 W
                Gate Leakage Power = 5.14853e-05 W
                Runtime Dynamic Power = 4.87237e-10 W
                Runtime Dynamic Energy = 6.97375e-10 J
                Total Runtime Energy = 0.00280748 J

                  Integer Register File:
                    Area = 0.0186223 mm^2
                    Peak Dynamic Power = 0.028914 W
                    Subthreshold Leakage Power = 0.000762251 W
                    Gate Leakage Power = 2.05735e-05 W
                    Runtime Dynamic Power = 3.8479e-10 W
                    Runtime Dynamic Energy = 5.50744e-10 J
                    Total Runtime Energy = 0.00112044 J

                  FP Register File:
                    Area = 0.0107906 mm^2
                    Peak Dynamic Power = 0.00544812 W
                    Subthreshold Leakage Power = 0.00114777 W
                    Gate Leakage Power = 3.09119e-05 W
                    Runtime Dynamic Power = 1.02447e-10 W
                    Runtime Dynamic Energy = 1.46631e-10 J
                    Total Runtime Energy = 0.00168704 J

              Integer ALU(s):
                Area = 0.138846 mm^2
                Peak Dynamic Power = 0.157715 W
                Subthreshold Leakage Power = 0.085206 W
                Gate Leakage Power = 0.00854828 W
                Runtime Dynamic Power = 0.0573065 W
                Runtime Dynamic Energy = 0.082022 J
                Total Runtime Energy = 0.216211 J

              Floating Point Unit(s):
                Area = 1.8404 mm^2
                Peak Dynamic Power = 0.236573 W
                Subthreshold Leakage Power = 0.282349 W
                Gate Leakage Power = 0.0283266 W
                Runtime Dynamic Power = 0.0361005 W
                Runtime Dynamic Energy = 0.0516701 J
                Total Runtime Energy = 0.496336 J

              Multiply/Divide Unit(s):
                Area = 0.20827 mm^2
                Peak Dynamic Power = 0.157715 W
                Subthreshold Leakage Power = 0.127809 W
                Gate Leakage Power = 0.0128224 W
                Runtime Dynamic Power = 1.10191e-09 W
                Runtime Dynamic Energy = 1.57715e-09 J
                Total Runtime Energy = 0.201284 J

          Undifferentiated Core:
            Area = 0.528329 mm^2
            Peak Dynamic Power = 0 W
            Subthreshold Leakage Power = 0.16211 W
            Gate Leakage Power = 0.0162637 W
            Runtime Dynamic Power = 0 W
            Runtime Dynamic Energy = 0 J
            Total Runtime Energy = 0.255303 J

          Pipeline?:
            Area = 0.105346 mm^2
            Peak Dynamic Power = 0 W
            Subthreshold Leakage Power = 0.0863787 W
            Gate Leakage Power = 0.00920013 W
            Runtime Dynamic Power = 0.183322 W
            Runtime Dynamic Energy = 0.262386 J
            Total Runtime Energy = 0.399186 J

      Core 1:
        Area = 5.11302 mm^2
        Peak Dynamic Power = 0.725551 W
        Subthreshold Leakage Power = 0.910011 W
        Gate Leakage Power = 0.0793208 W
        Runtime Dynamic Power = 0.390247 W
        Runtime Dynamic Energy = 0.558555 J
        Total Runtime Energy = 1.97457 J

          Instruction Fetch Unit:
            Area = 1.07061 mm^2
            Peak Dynamic Power = 0.069507 W
            Subthreshold Leakage Power = 0.0768543 W
            Gate Leakage Power = 0.00183262 W
            Runtime Dynamic Power = 0.0859434 W
            Runtime Dynamic Energy = 0.123009 J
            Total Runtime Energy = 0.235633 J

              Instruction Cache:
                Area = 1.06646 mm^2
                Peak Dynamic Power = 0.0345629 W
                Subthreshold Leakage Power = 0.0723979 W
                Gate Leakage Power = 0.00168831 W
                Runtime Dynamic Power = 0.0554415 W
                Runtime Dynamic Energy = 0.0793526 J
                Total Runtime Energy = 0.185391 J

                  Data and Tag Arrays:
                    Area = 0.259164 mm^2
                    Peak Dynamic Power = 0 W
                    Subthreshold Leakage Power = 0.066312 W
                    Gate Leakage Power = 0.00138196 W
                    Runtime Dynamic Power = 0.0554357 W
                    Runtime Dynamic Energy = 0.0793443 J
                    Total Runtime Energy = 0.176234 J

                  Miss Buffer:
                    Area = 0.315209 mm^2
                    Peak Dynamic Power = 0.0124784 W
                    Subthreshold Leakage Power = 0.00218421 W
                    Gate Leakage Power = 0.000109941 W
                    Runtime Dynamic Power = 2.12431e-06 W
                    Runtime Dynamic Energy = 3.04049e-06 J
                    Total Runtime Energy = 0.00328663 J

                  Fill Buffer:
                    Area = 0.246043 mm^2
                    Peak Dynamic Power = 0.0110423 W
                    Subthreshold Leakage Power = 0.00195087 W
                    Gate Leakage Power = 9.82028e-05 W
                    Runtime Dynamic Power = 1.86325e-06 W
                    Runtime Dynamic Energy = 2.66684e-06 J
                    Total Runtime Energy = 0.00293547 J

                  Prefetch Buffer:
                    Area = 0.246043 mm^2
                    Peak Dynamic Power = 0.0110423 W
                    Subthreshold Leakage Power = 0.00195087 W
                    Gate Leakage Power = 9.82028e-05 W
                    Runtime Dynamic Power = 1.86325e-06 W
                    Runtime Dynamic Energy = 2.66684e-06 J
                    Total Runtime Energy = 0.00293547 J

              Instruction Buffer:
                Area = 0.00177465 mm^2
                Peak Dynamic Power = 0.00177346 W
                Subthreshold Leakage Power = 0.000334365 W
                Gate Leakage Power = 1.02451e-05 W
                Runtime Dynamic Power = 0.00154801 W
                Runtime Dynamic Energy = 0.00221564 J
                Total Runtime Energy = 0.00270888 J

              Instruction Opcode Decoder:
                Area = 0.000733115 mm^2
                Peak Dynamic Power = 0.0110556 W
                Subthreshold Leakage Power = 0.00127003 W
                Gate Leakage Power = 4.16647e-05 W
                Runtime Dynamic Power = 0.00965015 W
                Runtime Dynamic Energy = 0.0138121 J
                Total Runtime Energy = 0.0156895 J

              Instruction Operand Decoder:
                Area = 0.00018867 mm^2
                Peak Dynamic Power = 0.0110476 W
                Subthreshold Leakage Power = 0.00032028 W
                Gate Leakage Power = 1.08411e-05 W
                Runtime Dynamic Power = 0.00964316 W
                Runtime Dynamic Energy = 0.0138021 J
                Total Runtime Energy = 0.014276 J

              Instruction Microcode Decoder:
                Area = 0.00144948 mm^2
                Peak Dynamic Power = 0.0110675 W
                Subthreshold Leakage Power = 0.00253168 W
                Gate Leakage Power = 8.15593e-05 W
                Runtime Dynamic Power = 0.00966052 W
                Runtime Dynamic Energy = 0.013827 J
                Total Runtime Energy = 0.0175673 J

          Load/Store Unit:
            Area = 1.11574 mm^2
            Peak Dynamic Power = 0.0490235 W
            Subthreshold Leakage Power = 0.076641 W
            Gate Leakage Power = 0.00186238 W
            Runtime Dynamic Power = 0.0187332 W
            Runtime Dynamic Energy = 0.0268126 J
            Total Runtime Energy = 0.139173 J

              Data Cache:
                Area = 1.06646 mm^2
                Peak Dynamic Power = 0.0345629 W
                Subthreshold Leakage Power = 0.0723979 W
                Gate Leakage Power = 0.00168831 W
                Runtime Dynamic Power = 0.0132688 W
                Runtime Dynamic Energy = 0.0189915 J
                Total Runtime Energy = 0.12503 J

                  Data and Tag Arrays:
                    Area = 0.259164 mm^2
                    Peak Dynamic Power = 0 W
                    Subthreshold Leakage Power = 0.066312 W
                    Gate Leakage Power = 0.00138196 W
                    Runtime Dynamic Power = 0.0131687 W
                    Runtime Dynamic Energy = 0.0188481 J
                    Total Runtime Energy = 0.115737 J

                  Miss Buffer:
                    Area = 0.315209 mm^2
                    Peak Dynamic Power = 0.0124784 W
                    Subthreshold Leakage Power = 0.00218421 W
                    Gate Leakage Power = 0.000109941 W
                    Runtime Dynamic Power = 3.94637e-05 W
                    Runtime Dynamic Energy = 5.64838e-05 J
                    Total Runtime Energy = 0.00334007 J

                  Fill Buffer:
                    Area = 0.246043 mm^2
                    Peak Dynamic Power = 0.0110423 W
                    Subthreshold Leakage Power = 0.00195087 W
                    Gate Leakage Power = 9.82028e-05 W
                    Runtime Dynamic Power = 3.4614e-05 W
                    Runtime Dynamic Energy = 4.95424e-05 J
                    Total Runtime Energy = 0.00298235 J

                  Prefetch Buffer:
                    Area = 0.246043 mm^2
                    Peak Dynamic Power = 0.0110423 W
                    Subthreshold Leakage Power = 0.00195087 W
                    Gate Leakage Power = 9.82028e-05 W
                    Runtime Dynamic Power = 2.61045e-05 W
                    Runtime Dynamic Energy = 3.7363e-05 J
                    Total Runtime Energy = 0.00297017 J

              Store Queue:
                Area = 0.0492795 mm^2
                Peak Dynamic Power = 0.0144605 W
                Subthreshold Leakage Power = 0.00424307 W
                Gate Leakage Power = 0.000174072 W
                Runtime Dynamic Power = 0.00546439 W
                Runtime Dynamic Energy = 0.0078211 J
                Total Runtime Energy = 0.0141433 J

          Memory Management Unit:
            Area = 0.0640137 mm^2
            Peak Dynamic Power = 0.020655 W
            Subthreshold Leakage Power = 0.0107524 W
            Gate Leakage Power = 0.00041319 W
            Runtime Dynamic Power = 0.00948993 W
            Runtime Dynamic Energy = 0.0135828 J
            Total Runtime Energy = 0.029564 J

              Instruction TLB:
                Area = 0.0196043 mm^2
                Peak Dynamic Power = 0.00880588 W
                Subthreshold Leakage Power = 0.00418736 W
                Gate Leakage Power = 0.000171372 W
                Runtime Dynamic Power = 0.00772512 W
                Runtime Dynamic Energy = 0.0110568 J
                Total Runtime Energy = 0.0172954 J

              Data TLB:
                Area = 0.0444093 mm^2
                Peak Dynamic Power = 0.0118492 W
                Subthreshold Leakage Power = 0.00656505 W
                Gate Leakage Power = 0.000241817 W
                Runtime Dynamic Power = 0.00176482 W
                Runtime Dynamic Energy = 0.00252596 J
                Total Runtime Energy = 0.0122685 J

          Execution Unit:
            Area = 2.22898 mm^2
            Peak Dynamic Power = 0.586365 W
            Subthreshold Leakage Power = 0.497274 W
            Gate Leakage Power = 0.0497488 W
            Runtime Dynamic Power = 0.0927588 W
            Runtime Dynamic Energy = 0.132764 J
            Total Runtime Energy = 0.91571 J

              Int Bypass Data:
                Area = 0.00171352 mm^2
                Peak Dynamic Power = 0 W
                Subthreshold Leakage Power = 0 W
                Gate Leakage Power = 0 W
                Runtime Dynamic Power = 1.22872e-09 W
                Runtime Dynamic Energy = 1.75865e-09 J
                Total Runtime Energy = 1.75865e-09 J

              Int Bypass Tag:
                Area = 0.00021419 mm^2
                Peak Dynamic Power = 0 W
                Subthreshold Leakage Power = 0 W
                Gate Leakage Power = 0 W
                Runtime Dynamic Power = 1.53591e-10 W
                Runtime Dynamic Energy = 2.19832e-10 J
                Total Runtime Energy = 2.19832e-10 J

              Mul Bypass Data:
                Area = 0.00383958 mm^2
                Peak Dynamic Power = 0 W
                Subthreshold Leakage Power = 0 W
                Gate Leakage Power = 0 W
                Runtime Dynamic Power = 3.93325e-10 W
                Runtime Dynamic Energy = 5.6296e-10 J
                Total Runtime Energy = 5.6296e-10 J

              Mul Bypass Tag:
                Area = 0.000319965 mm^2
                Peak Dynamic Power = 0 W
                Subthreshold Leakage Power = 0 W
                Gate Leakage Power = 0 W
                Runtime Dynamic Power = 3.27771e-11 W
                Runtime Dynamic Energy = 4.69133e-11 J
                Total Runtime Energy = 4.69133e-11 J

              FP Bypass Data:
                Area = 0.00547065 mm^2
                Peak Dynamic Power = 0 W
                Subthreshold Leakage Power = 0 W
                Gate Leakage Power = 0 W
                Runtime Dynamic Power = 1.12082e-09 W
                Runtime Dynamic Energy = 1.60421e-09 J
                Total Runtime Energy = 1.60421e-09 J

              FP Bypass Tag:
                Area = 0.00050165 mm^2
                Peak Dynamic Power = 0 W
                Subthreshold Leakage Power = 0 W
                Gate Leakage Power = 0 W
                Runtime Dynamic Power = 1.02778e-10 W
                Runtime Dynamic Energy = 1.47104e-10 J
                Total Runtime Energy = 1.47104e-10 J

              Register File Unit:
                Area = 0.0294128 mm^2
                Peak Dynamic Power = 0.0343622 W
                Subthreshold Leakage Power = 0.00191002 W
                Gate Leakage Power = 5.14853e-05 W
                Runtime Dynamic Power = 4.87237e-10 W
                Runtime Dynamic Energy = 6.97375e-10 J
                Total Runtime Energy = 0.00280748 J

                  Integer Register File:
                    Area = 0.0186223 mm^2
                    Peak Dynamic Power = 0.028914 W
                    Subthreshold Leakage Power = 0.000762251 W
                    Gate Leakage Power = 2.05735e-05 W
                    Runtime Dynamic Power = 3.8479e-10 W
                    Runtime Dynamic Energy = 5.50744e-10 J
                    Total Runtime Energy = 0.00112044 J

                  FP Register File:
                    Area = 0.0107906 mm^2
                    Peak Dynamic Power = 0.00544812 W
                    Subthreshold Leakage Power = 0.00114777 W
                    Gate Leakage Power = 3.09119e-05 W
                    Runtime Dynamic Power = 1.02447e-10 W
                    Runtime Dynamic Energy = 1.46631e-10 J
                    Total Runtime Energy = 0.00168704 J

              Integer ALU(s):
                Area = 0.138846 mm^2
                Peak Dynamic Power = 0.157715 W
                Subthreshold Leakage Power = 0.085206 W
                Gate Leakage Power = 0.00854828 W
                Runtime Dynamic Power = 0.0568699 W
                Runtime Dynamic Energy = 0.0813969 J
                Total Runtime Energy = 0.215586 J

              Floating Point Unit(s):
                Area = 1.8404 mm^2
                Peak Dynamic Power = 0.236573 W
                Subthreshold Leakage Power = 0.282349 W
                Gate Leakage Power = 0.0283266 W
                Runtime Dynamic Power = 0.035889 W
                Runtime Dynamic Energy = 0.0513673 J
                Total Runtime Energy = 0.496033 J

              Multiply/Divide Unit(s):
                Area = 0.20827 mm^2
                Peak Dynamic Power = 0.157715 W
                Subthreshold Leakage Power = 0.127809 W
                Gate Leakage Power = 0.0128224 W
                Runtime Dynamic Power = 1.10191e-09 W
                Runtime Dynamic Energy = 1.57715e-09 J
                Total Runtime Energy = 0.201284 J

          Undifferentiated Core:
            Area = 0.528329 mm^2
            Peak Dynamic Power = 0 W
            Subthreshold Leakage Power = 0.16211 W
            Gate Leakage Power = 0.0162637 W
            Runtime Dynamic Power = 0 W
            Runtime Dynamic Energy = 0 J
            Total Runtime Energy = 0.255303 J

          Pipeline?:
            Area = 0.105346 mm^2
            Peak Dynamic Power = 0 W
            Subthreshold Leakage Power = 0.0863787 W
            Gate Leakage Power = 0.00920013 W
            Runtime Dynamic Power = 0.183322 W
            Runtime Dynamic Energy = 0.262386 J
            Total Runtime Energy = 0.399186 J

      Core 2:
        Area = 5.11302 mm^2
        Peak Dynamic Power = 0.725551 W
        Subthreshold Leakage Power = 0.910011 W
        Gate Leakage Power = 0.0793208 W
        Runtime Dynamic Power = 0.418613 W
        Runtime Dynamic Energy = 0.599155 J
        Total Runtime Energy = 2.01517 J

          Instruction Fetch Unit:
            Area = 1.07061 mm^2
            Peak Dynamic Power = 0.069507 W
            Subthreshold Leakage Power = 0.0768543 W
            Gate Leakage Power = 0.00183262 W
            Runtime Dynamic Power = 0.0962234 W
            Runtime Dynamic Energy = 0.137723 J
            Total Runtime Energy = 0.250346 J

              Instruction Cache:
                Area = 1.06646 mm^2
                Peak Dynamic Power = 0.0345629 W
                Subthreshold Leakage Power = 0.0723979 W
                Gate Leakage Power = 0.00168831 W
                Runtime Dynamic Power = 0.0619092 W
                Runtime Dynamic Energy = 0.0886097 J
                Total Runtime Energy = 0.194648 J

                  Data and Tag Arrays:
                    Area = 0.259164 mm^2
                    Peak Dynamic Power = 0 W
                    Subthreshold Leakage Power = 0.066312 W
                    Gate Leakage Power = 0.00138196 W
                    Runtime Dynamic Power = 0.0619027 W
                    Runtime Dynamic Energy = 0.0886004 J
                    Total Runtime Energy = 0.18549 J

                  Miss Buffer:
                    Area = 0.315209 mm^2
                    Peak Dynamic Power = 0.0124784 W
                    Subthreshold Leakage Power = 0.00218421 W
                    Gate Leakage Power = 0.000109941 W
                    Runtime Dynamic Power = 2.35454e-06 W
                    Runtime Dynamic Energy = 3.37001e-06 J
                    Total Runtime Energy = 0.00328696 J

                  Fill Buffer:
                    Area = 0.246043 mm^2
                    Peak Dynamic Power = 0.0110423 W
                    Subthreshold Leakage Power = 0.00195087 W
                    Gate Leakage Power = 9.82028e-05 W
                    Runtime Dynamic Power = 2.06518e-06 W
                    Runtime Dynamic Energy = 2.95587e-06 J
                    Total Runtime Energy = 0.00293576 J

                  Prefetch Buffer:
                    Area = 0.246043 mm^2
                    Peak Dynamic Power = 0.0110423 W
                    Subthreshold Leakage Power = 0.00195087 W
                    Gate Leakage Power = 9.82028e-05 W
                    Runtime Dynamic Power = 2.06518e-06 W
                    Runtime Dynamic Energy = 2.95587e-06 J
                    Total Runtime Energy = 0.00293576 J

              Instruction Buffer:
                Area = 0.00177465 mm^2
                Peak Dynamic Power = 0.00177346 W
                Subthreshold Leakage Power = 0.000334365 W
                Gate Leakage Power = 1.02451e-05 W
                Runtime Dynamic Power = 0.00174149 W
                Runtime Dynamic Energy = 0.00249257 J
                Total Runtime Energy = 0.00298581 J

              Instruction Opcode Decoder:
                Area = 0.000733115 mm^2
                Peak Dynamic Power = 0.0110556 W
                Subthreshold Leakage Power = 0.00127003 W
                Gate Leakage Power = 4.16647e-05 W
                Runtime Dynamic Power = 0.0108563 W
                Runtime Dynamic Energy = 0.0155385 J
                Total Runtime Energy = 0.0174159 J

              Instruction Operand Decoder:
                Area = 0.00018867 mm^2
                Peak Dynamic Power = 0.0110476 W
                Subthreshold Leakage Power = 0.00032028 W
                Gate Leakage Power = 1.08411e-05 W
                Runtime Dynamic Power = 0.0108484 W
                Runtime Dynamic Energy = 0.0155272 J
                Total Runtime Energy = 0.0160011 J

              Instruction Microcode Decoder:
                Area = 0.00144948 mm^2
                Peak Dynamic Power = 0.0110675 W
                Subthreshold Leakage Power = 0.00253168 W
                Gate Leakage Power = 8.15593e-05 W
                Runtime Dynamic Power = 0.010868 W
                Runtime Dynamic Energy = 0.0155552 J
                Total Runtime Energy = 0.0192955 J

          Load/Store Unit:
            Area = 1.11574 mm^2
            Peak Dynamic Power = 0.0490235 W
            Subthreshold Leakage Power = 0.076641 W
            Gate Leakage Power = 0.00186238 W
            Runtime Dynamic Power = 0.0215309 W
            Runtime Dynamic Energy = 0.0308169 J
            Total Runtime Energy = 0.143178 J

              Data Cache:
                Area = 1.06646 mm^2
                Peak Dynamic Power = 0.0345629 W
                Subthreshold Leakage Power = 0.0723979 W
                Gate Leakage Power = 0.00168831 W
                Runtime Dynamic Power = 0.0152721 W
                Runtime Dynamic Energy = 0.0218587 J
                Total Runtime Energy = 0.127897 J

                  Data and Tag Arrays:
                    Area = 0.259164 mm^2
                    Peak Dynamic Power = 0 W
                    Subthreshold Leakage Power = 0.066312 W
                    Gate Leakage Power = 0.00138196 W
                    Runtime Dynamic Power = 0.0151512 W
                    Runtime Dynamic Energy = 0.0216857 J
                    Total Runtime Energy = 0.118575 J

                  Miss Buffer:
                    Area = 0.315209 mm^2
                    Peak Dynamic Power = 0.0124784 W
                    Subthreshold Leakage Power = 0.00218421 W
                    Gate Leakage Power = 0.000109941 W
                    Runtime Dynamic Power = 4.71195e-05 W
                    Runtime Dynamic Energy = 6.74414e-05 J
                    Total Runtime Energy = 0.00335103 J

                  Fill Buffer:
                    Area = 0.246043 mm^2
                    Peak Dynamic Power = 0.0110423 W
                    Subthreshold Leakage Power = 0.00195087 W
                    Gate Leakage Power = 9.82028e-05 W
                    Runtime Dynamic Power = 4.13289e-05 W
                    Runtime Dynamic Energy = 5.91534e-05 J
                    Total Runtime Energy = 0.00299196 J

                  Prefetch Buffer:
                    Area = 0.246043 mm^2
                    Peak Dynamic Power = 0.0110423 W
                    Subthreshold Leakage Power = 0.00195087 W
                    Gate Leakage Power = 9.82028e-05 W
                    Runtime Dynamic Power = 3.24148e-05 W
                    Runtime Dynamic Energy = 4.63948e-05 J
                    Total Runtime Energy = 0.0029792 J

              Store Queue:
                Area = 0.0492795 mm^2
                Peak Dynamic Power = 0.0144605 W
                Subthreshold Leakage Power = 0.00424307 W
                Gate Leakage Power = 0.000174072 W
                Runtime Dynamic Power = 0.0062588 W
                Runtime Dynamic Energy = 0.00895812 J
                Total Runtime Energy = 0.0152803 J

          Memory Management Unit:
            Area = 0.0640137 mm^2
            Peak Dynamic Power = 0.020655 W
            Subthreshold Leakage Power = 0.0107524 W
            Gate Leakage Power = 0.00041319 W
            Runtime Dynamic Power = 0.0106019 W
            Runtime Dynamic Energy = 0.0151743 J
            Total Runtime Energy = 0.0311555 J

              Instruction TLB:
                Area = 0.0196043 mm^2
                Peak Dynamic Power = 0.00880588 W
                Subthreshold Leakage Power = 0.00418736 W
                Gate Leakage Power = 0.000171372 W
                Runtime Dynamic Power = 0.00861623 W
                Runtime Dynamic Energy = 0.0123323 J
                Total Runtime Energy = 0.0185709 J

              Data TLB:
                Area = 0.0444093 mm^2
                Peak Dynamic Power = 0.0118492 W
                Subthreshold Leakage Power = 0.00656505 W
                Gate Leakage Power = 0.000241817 W
                Runtime Dynamic Power = 0.00198566 W
                Runtime Dynamic Energy = 0.00284204 J
                Total Runtime Energy = 0.0125846 J

          Execution Unit:
            Area = 2.22898 mm^2
            Peak Dynamic Power = 0.586365 W
            Subthreshold Leakage Power = 0.497274 W
            Gate Leakage Power = 0.0497488 W
            Runtime Dynamic Power = 0.106935 W
            Runtime Dynamic Energy = 0.153054 J
            Total Runtime Energy = 0.936 J

              Int Bypass Data:
                Area = 0.00171352 mm^2
                Peak Dynamic Power = 0 W
                Subthreshold Leakage Power = 0 W
                Gate Leakage Power = 0 W
                Runtime Dynamic Power = 1.22872e-09 W
                Runtime Dynamic Energy = 1.75865e-09 J
                Total Runtime Energy = 1.75865e-09 J

              Int Bypass Tag:
                Area = 0.00021419 mm^2
                Peak Dynamic Power = 0 W
                Subthreshold Leakage Power = 0 W
                Gate Leakage Power = 0 W
                Runtime Dynamic Power = 1.53591e-10 W
                Runtime Dynamic Energy = 2.19832e-10 J
                Total Runtime Energy = 2.19832e-10 J

              Mul Bypass Data:
                Area = 0.00383958 mm^2
                Peak Dynamic Power = 0 W
                Subthreshold Leakage Power = 0 W
                Gate Leakage Power = 0 W
                Runtime Dynamic Power = 3.93325e-10 W
                Runtime Dynamic Energy = 5.6296e-10 J
                Total Runtime Energy = 5.6296e-10 J

              Mul Bypass Tag:
                Area = 0.000319965 mm^2
                Peak Dynamic Power = 0 W
                Subthreshold Leakage Power = 0 W
                Gate Leakage Power = 0 W
                Runtime Dynamic Power = 3.27771e-11 W
                Runtime Dynamic Energy = 4.69133e-11 J
                Total Runtime Energy = 4.69133e-11 J

              FP Bypass Data:
                Area = 0.00547065 mm^2
                Peak Dynamic Power = 0 W
                Subthreshold Leakage Power = 0 W
                Gate Leakage Power = 0 W
                Runtime Dynamic Power = 1.12082e-09 W
                Runtime Dynamic Energy = 1.60421e-09 J
                Total Runtime Energy = 1.60421e-09 J

              FP Bypass Tag:
                Area = 0.00050165 mm^2
                Peak Dynamic Power = 0 W
                Subthreshold Leakage Power = 0 W
                Gate Leakage Power = 0 W
                Runtime Dynamic Power = 1.02778e-10 W
                Runtime Dynamic Energy = 1.47104e-10 J
                Total Runtime Energy = 1.47104e-10 J

              Register File Unit:
                Area = 0.0294128 mm^2
                Peak Dynamic Power = 0.0343622 W
                Subthreshold Leakage Power = 0.00191002 W
                Gate Leakage Power = 5.14853e-05 W
                Runtime Dynamic Power = 4.87237e-10 W
                Runtime Dynamic Energy = 6.97375e-10 J
                Total Runtime Energy = 0.00280748 J

                  Integer Register File:
                    Area = 0.0186223 mm^2
                    Peak Dynamic Power = 0.028914 W
                    Subthreshold Leakage Power = 0.000762251 W
                    Gate Leakage Power = 2.05735e-05 W
                    Runtime Dynamic Power = 3.8479e-10 W
                    Runtime Dynamic Energy = 5.50744e-10 J
                    Total Runtime Energy = 0.00112044 J

                  FP Register File:
                    Area = 0.0107906 mm^2
                    Peak Dynamic Power = 0.00544812 W
                    Subthreshold Leakage Power = 0.00114777 W
                    Gate Leakage Power = 3.09119e-05 W
                    Runtime Dynamic Power = 1.02447e-10 W
                    Runtime Dynamic Energy = 1.46631e-10 J
                    Total Runtime Energy = 0.00168704 J

              Integer ALU(s):
                Area = 0.138846 mm^2
                Peak Dynamic Power = 0.157715 W
                Subthreshold Leakage Power = 0.085206 W
                Gate Leakage Power = 0.00854828 W
                Runtime Dynamic Power = 0.0626868 W
                Runtime Dynamic Energy = 0.0897226 J
                Total Runtime Energy = 0.223912 J

              Floating Point Unit(s):
                Area = 1.8404 mm^2
                Peak Dynamic Power = 0.236573 W
                Subthreshold Leakage Power = 0.282349 W
                Gate Leakage Power = 0.0283266 W
                Runtime Dynamic Power = 0.0442481 W
                Runtime Dynamic Energy = 0.0633316 J
                Total Runtime Energy = 0.507997 J

              Multiply/Divide Unit(s):
                Area = 0.20827 mm^2
                Peak Dynamic Power = 0.157715 W
                Subthreshold Leakage Power = 0.127809 W
                Gate Leakage Power = 0.0128224 W
                Runtime Dynamic Power = 1.10191e-09 W
                Runtime Dynamic Energy = 1.57715e-09 J
                Total Runtime Energy = 0.201284 J

          Undifferentiated Core:
            Area = 0.528329 mm^2
            Peak Dynamic Power = 0 W
            Subthreshold Leakage Power = 0.16211 W
            Gate Leakage Power = 0.0162637 W
            Runtime Dynamic Power = 0 W
            Runtime Dynamic Energy = 0 J
            Total Runtime Energy = 0.255303 J

          Pipeline?:
            Area = 0.105346 mm^2
            Peak Dynamic Power = 0 W
            Subthreshold Leakage Power = 0.0863787 W
            Gate Leakage Power = 0.00920013 W
            Runtime Dynamic Power = 0.183322 W
            Runtime Dynamic Energy = 0.262386 J
            Total Runtime Energy = 0.399186 J

      Core 3:
        Area = 5.11302 mm^2
        Peak Dynamic Power = 0.725551 W
        Subthreshold Leakage Power = 0.910011 W
        Gate Leakage Power = 0.0793208 W
        Runtime Dynamic Power = 0.391566 W
        Runtime Dynamic Energy = 0.560442 J
        Total Runtime Energy = 1.97646 J

          Instruction Fetch Unit:
            Area = 1.07061 mm^2
            Peak Dynamic Power = 0.069507 W
            Subthreshold Leakage Power = 0.0768543 W
            Gate Leakage Power = 0.00183262 W
            Runtime Dynamic Power = 0.0865822 W
            Runtime Dynamic Energy = 0.123924 J
            Total Runtime Energy = 0.236547 J

              Instruction Cache:
                Area = 1.06646 mm^2
                Peak Dynamic Power = 0.0345629 W
                Subthreshold Leakage Power = 0.0723979 W
                Gate Leakage Power = 0.00168831 W
                Runtime Dynamic Power = 0.0558609 W
                Runtime Dynamic Energy = 0.0799528 J
                Total Runtime Energy = 0.185991 J

                  Data and Tag Arrays:
                    Area = 0.259164 mm^2
                    Peak Dynamic Power = 0 W
                    Subthreshold Leakage Power = 0.066312 W
                    Gate Leakage Power = 0.00138196 W
                    Runtime Dynamic Power = 0.0558531 W
                    Runtime Dynamic Energy = 0.0799417 J
                    Total Runtime Energy = 0.176831 J

                  Miss Buffer:
                    Area = 0.315209 mm^2
                    Peak Dynamic Power = 0.0124784 W
                    Subthreshold Leakage Power = 0.00218421 W
                    Gate Leakage Power = 0.000109941 W
                    Runtime Dynamic Power = 2.8093e-06 W
                    Runtime Dynamic Energy = 4.0209e-06 J
                    Total Runtime Energy = 0.00328761 J

                  Fill Buffer:
                    Area = 0.246043 mm^2
                    Peak Dynamic Power = 0.0110423 W
                    Subthreshold Leakage Power = 0.00195087 W
                    Gate Leakage Power = 9.82028e-05 W
                    Runtime Dynamic Power = 2.46406e-06 W
                    Runtime Dynamic Energy = 3.52677e-06 J
                    Total Runtime Energy = 0.00293633 J

                  Prefetch Buffer:
                    Area = 0.246043 mm^2
                    Peak Dynamic Power = 0.0110423 W
                    Subthreshold Leakage Power = 0.00195087 W
                    Gate Leakage Power = 9.82028e-05 W
                    Runtime Dynamic Power = 2.46406e-06 W
                    Runtime Dynamic Energy = 3.52677e-06 J
                    Total Runtime Energy = 0.00293633 J

              Instruction Buffer:
                Area = 0.00177465 mm^2
                Peak Dynamic Power = 0.00177346 W
                Subthreshold Leakage Power = 0.000334365 W
                Gate Leakage Power = 1.02451e-05 W
                Runtime Dynamic Power = 0.00155915 W
                Runtime Dynamic Energy = 0.00223158 J
                Total Runtime Energy = 0.00272482 J

              Instruction Opcode Decoder:
                Area = 0.000733115 mm^2
                Peak Dynamic Power = 0.0110556 W
                Subthreshold Leakage Power = 0.00127003 W
                Gate Leakage Power = 4.16647e-05 W
                Runtime Dynamic Power = 0.00971958 W
                Runtime Dynamic Energy = 0.0139115 J
                Total Runtime Energy = 0.0157889 J

              Instruction Operand Decoder:
                Area = 0.00018867 mm^2
                Peak Dynamic Power = 0.0110476 W
                Subthreshold Leakage Power = 0.00032028 W
                Gate Leakage Power = 1.08411e-05 W
                Runtime Dynamic Power = 0.00971254 W
                Runtime Dynamic Energy = 0.0139014 J
                Total Runtime Energy = 0.0143753 J

              Instruction Microcode Decoder:
                Area = 0.00144948 mm^2
                Peak Dynamic Power = 0.0110675 W
                Subthreshold Leakage Power = 0.00253168 W
                Gate Leakage Power = 8.15593e-05 W
                Runtime Dynamic Power = 0.00973003 W
                Runtime Dynamic Energy = 0.0139264 J
                Total Runtime Energy = 0.0176667 J

          Load/Store Unit:
            Area = 1.11574 mm^2
            Peak Dynamic Power = 0.0490235 W
            Subthreshold Leakage Power = 0.076641 W
            Gate Leakage Power = 0.00186238 W
            Runtime Dynamic Power = 0.0190176 W
            Runtime Dynamic Energy = 0.0272195 J
            Total Runtime Energy = 0.13958 J

              Data Cache:
                Area = 1.06646 mm^2
                Peak Dynamic Power = 0.0345629 W
                Subthreshold Leakage Power = 0.0723979 W
                Gate Leakage Power = 0.00168831 W
                Runtime Dynamic Power = 0.0134788 W
                Runtime Dynamic Energy = 0.019292 J
                Total Runtime Energy = 0.125331 J

                  Data and Tag Arrays:
                    Area = 0.259164 mm^2
                    Peak Dynamic Power = 0 W
                    Subthreshold Leakage Power = 0.066312 W
                    Gate Leakage Power = 0.00138196 W
                    Runtime Dynamic Power = 0.0133738 W
                    Runtime Dynamic Energy = 0.0191418 J
                    Total Runtime Energy = 0.116031 J

                  Miss Buffer:
                    Area = 0.315209 mm^2
                    Peak Dynamic Power = 0.0124784 W
                    Subthreshold Leakage Power = 0.00218421 W
                    Gate Leakage Power = 0.000109941 W
                    Runtime Dynamic Power = 4.15448e-05 W
                    Runtime Dynamic Energy = 5.94624e-05 J
                    Total Runtime Energy = 0.00334305 J

                  Fill Buffer:
                    Area = 0.246043 mm^2
                    Peak Dynamic Power = 0.0110423 W
                    Subthreshold Leakage Power = 0.00195087 W
                    Gate Leakage Power = 9.82028e-05 W
                    Runtime Dynamic Power = 3.64393e-05 W
                    Runtime Dynamic Energy = 5.2155e-05 J
                    Total Runtime Energy = 0.00298496 J

                  Prefetch Buffer:
                    Area = 0.246043 mm^2
                    Peak Dynamic Power = 0.0110423 W
                    Subthreshold Leakage Power = 0.00195087 W
                    Gate Leakage Power = 9.82028e-05 W
                    Runtime Dynamic Power = 2.69892e-05 W
                    Runtime Dynamic Energy = 3.86292e-05 J
                    Total Runtime Energy = 0.00297144 J

              Store Queue:
                Area = 0.0492795 mm^2
                Peak Dynamic Power = 0.0144605 W
                Subthreshold Leakage Power = 0.00424307 W
                Gate Leakage Power = 0.000174072 W
                Runtime Dynamic Power = 0.00553874 W
                Runtime Dynamic Energy = 0.00792752 J
                Total Runtime Energy = 0.0142497 J

          Memory Management Unit:
            Area = 0.0640137 mm^2
            Peak Dynamic Power = 0.020655 W
            Subthreshold Leakage Power = 0.0107524 W
            Gate Leakage Power = 0.00041319 W
            Runtime Dynamic Power = 0.00948034 W
            Runtime Dynamic Energy = 0.0135691 J
            Total Runtime Energy = 0.0295502 J

              Instruction TLB:
                Area = 0.0196043 mm^2
                Peak Dynamic Power = 0.00880588 W
                Subthreshold Leakage Power = 0.00418736 W
                Gate Leakage Power = 0.000171372 W
                Runtime Dynamic Power = 0.0077123 W
                Runtime Dynamic Energy = 0.0110385 J
                Total Runtime Energy = 0.0172771 J

              Data TLB:
                Area = 0.0444093 mm^2
                Peak Dynamic Power = 0.0118492 W
                Subthreshold Leakage Power = 0.00656505 W
                Gate Leakage Power = 0.000241817 W
                Runtime Dynamic Power = 0.00176805 W
                Runtime Dynamic Energy = 0.00253058 J
                Total Runtime Energy = 0.0122731 J

          Execution Unit:
            Area = 2.22898 mm^2
            Peak Dynamic Power = 0.586365 W
            Subthreshold Leakage Power = 0.497274 W
            Gate Leakage Power = 0.0497488 W
            Runtime Dynamic Power = 0.0931636 W
            Runtime Dynamic Energy = 0.133344 J
            Total Runtime Energy = 0.916289 J

              Int Bypass Data:
                Area = 0.00171352 mm^2
                Peak Dynamic Power = 0 W
                Subthreshold Leakage Power = 0 W
                Gate Leakage Power = 0 W
                Runtime Dynamic Power = 1.22872e-09 W
                Runtime Dynamic Energy = 1.75865e-09 J
                Total Runtime Energy = 1.75865e-09 J

              Int Bypass Tag:
                Area = 0.00021419 mm^2
                Peak Dynamic Power = 0 W
                Subthreshold Leakage Power = 0 W
                Gate Leakage Power = 0 W
                Runtime Dynamic Power = 1.53591e-10 W
                Runtime Dynamic Energy = 2.19832e-10 J
                Total Runtime Energy = 2.19832e-10 J

              Mul Bypass Data:
                Area = 0.00383958 mm^2
                Peak Dynamic Power = 0 W
                Subthreshold Leakage Power = 0 W
                Gate Leakage Power = 0 W
                Runtime Dynamic Power = 3.93325e-10 W
                Runtime Dynamic Energy = 5.6296e-10 J
                Total Runtime Energy = 5.6296e-10 J

              Mul Bypass Tag:
                Area = 0.000319965 mm^2
                Peak Dynamic Power = 0 W
                Subthreshold Leakage Power = 0 W
                Gate Leakage Power = 0 W
                Runtime Dynamic Power = 3.27771e-11 W
                Runtime Dynamic Energy = 4.69133e-11 J
                Total Runtime Energy = 4.69133e-11 J

              FP Bypass Data:
                Area = 0.00547065 mm^2
                Peak Dynamic Power = 0 W
                Subthreshold Leakage Power = 0 W
                Gate Leakage Power = 0 W
                Runtime Dynamic Power = 1.12082e-09 W
                Runtime Dynamic Energy = 1.60421e-09 J
                Total Runtime Energy = 1.60421e-09 J

              FP Bypass Tag:
                Area = 0.00050165 mm^2
                Peak Dynamic Power = 0 W
                Subthreshold Leakage Power = 0 W
                Gate Leakage Power = 0 W
                Runtime Dynamic Power = 1.02778e-10 W
                Runtime Dynamic Energy = 1.47104e-10 J
                Total Runtime Energy = 1.47104e-10 J

              Register File Unit:
                Area = 0.0294128 mm^2
                Peak Dynamic Power = 0.0343622 W
                Subthreshold Leakage Power = 0.00191002 W
                Gate Leakage Power = 5.14853e-05 W
                Runtime Dynamic Power = 4.87237e-10 W
                Runtime Dynamic Energy = 6.97375e-10 J
                Total Runtime Energy = 0.00280748 J

                  Integer Register File:
                    Area = 0.0186223 mm^2
                    Peak Dynamic Power = 0.028914 W
                    Subthreshold Leakage Power = 0.000762251 W
                    Gate Leakage Power = 2.05735e-05 W
                    Runtime Dynamic Power = 3.8479e-10 W
                    Runtime Dynamic Energy = 5.50744e-10 J
                    Total Runtime Energy = 0.00112044 J

                  FP Register File:
                    Area = 0.0107906 mm^2
                    Peak Dynamic Power = 0.00544812 W
                    Subthreshold Leakage Power = 0.00114777 W
                    Gate Leakage Power = 3.09119e-05 W
                    Runtime Dynamic Power = 1.02447e-10 W
                    Runtime Dynamic Energy = 1.46631e-10 J
                    Total Runtime Energy = 0.00168704 J

              Integer ALU(s):
                Area = 0.138846 mm^2
                Peak Dynamic Power = 0.157715 W
                Subthreshold Leakage Power = 0.085206 W
                Gate Leakage Power = 0.00854828 W
                Runtime Dynamic Power = 0.0574103 W
                Runtime Dynamic Energy = 0.0821705 J
                Total Runtime Energy = 0.216359 J

              Floating Point Unit(s):
                Area = 1.8404 mm^2
                Peak Dynamic Power = 0.236573 W
                Subthreshold Leakage Power = 0.282349 W
                Gate Leakage Power = 0.0283266 W
                Runtime Dynamic Power = 0.0357533 W
                Runtime Dynamic Energy = 0.0511732 J
                Total Runtime Energy = 0.495839 J

              Multiply/Divide Unit(s):
                Area = 0.20827 mm^2
                Peak Dynamic Power = 0.157715 W
                Subthreshold Leakage Power = 0.127809 W
                Gate Leakage Power = 0.0128224 W
                Runtime Dynamic Power = 1.10191e-09 W
                Runtime Dynamic Energy = 1.57715e-09 J
                Total Runtime Energy = 0.201284 J

          Undifferentiated Core:
            Area = 0.528329 mm^2
            Peak Dynamic Power = 0 W
            Subthreshold Leakage Power = 0.16211 W
            Gate Leakage Power = 0.0162637 W
            Runtime Dynamic Power = 0 W
            Runtime Dynamic Energy = 0 J
            Total Runtime Energy = 0.255303 J

          Pipeline?:
            Area = 0.105346 mm^2
            Peak Dynamic Power = 0 W
            Subthreshold Leakage Power = 0.0863787 W
            Gate Leakage Power = 0.00920013 W
            Runtime Dynamic Power = 0.183322 W
            Runtime Dynamic Energy = 0.262386 J
            Total Runtime Energy = 0.399186 J

      L2 Cache:
        Area = 27.1282 mm^2
        Peak Dynamic Power = 0.0345629 W
        Subthreshold Leakage Power = 8.50577 W
        Gate Leakage Power = 0.20561 W
        Runtime Dynamic Power = 0.00992339 W
        Runtime Dynamic Energy = 0.0142032 J
        Total Runtime Energy = 12.4827 J

          Data and Tag Arrays:
            Area = 26.3209 mm^2
            Peak Dynamic Power = 0 W
            Subthreshold Leakage Power = 8.49968 W
            Gate Leakage Power = 0.205304 W
            Runtime Dynamic Power = 0.00991663 W
            Runtime Dynamic Energy = 0.0141935 J
            Total Runtime Energy = 12.4735 J

          Miss Buffer:
            Area = 0.315209 mm^2
            Peak Dynamic Power = 0.0124784 W
            Subthreshold Leakage Power = 0.00218421 W
            Gate Leakage Power = 0.000109941 W
            Runtime Dynamic Power = 2.72037e-06 W
            Runtime Dynamic Energy = 3.89363e-06 J
            Total Runtime Energy = 0.00328748 J

          Fill Buffer:
            Area = 0.246043 mm^2
            Peak Dynamic Power = 0.0110423 W
            Subthreshold Leakage Power = 0.00195087 W
            Gate Leakage Power = 9.82028e-05 W
            Runtime Dynamic Power = 2.38606e-06 W
            Runtime Dynamic Energy = 3.41513e-06 J
            Total Runtime Energy = 0.00293622 J

          Prefetch Buffer:
            Area = 0.246043 mm^2
            Peak Dynamic Power = 0.0110423 W
            Subthreshold Leakage Power = 0.00195087 W
            Gate Leakage Power = 9.82028e-05 W
            Runtime Dynamic Power = 1.65503e-06 W
            Runtime Dynamic Energy = 2.36882e-06 J
            Total Runtime Energy = 0.00293518 J

      L2 Cache:
        Area = 27.1282 mm^2
        Peak Dynamic Power = 0.0345629 W
        Subthreshold Leakage Power = 8.50577 W
        Gate Leakage Power = 0.20561 W
        Runtime Dynamic Power = 0.0113438 W
        Runtime Dynamic Energy = 0.0162362 J
        Total Runtime Energy = 12.4847 J

          Data and Tag Arrays:
            Area = 26.3209 mm^2
            Peak Dynamic Power = 0 W
            Subthreshold Leakage Power = 8.49968 W
            Gate Leakage Power = 0.205304 W
            Runtime Dynamic Power = 0.011332 W
            Runtime Dynamic Energy = 0.0162194 J
            Total Runtime Energy = 12.4755 J

          Miss Buffer:
            Area = 0.315209 mm^2
            Peak Dynamic Power = 0.0124784 W
            Subthreshold Leakage Power = 0.00218421 W
            Gate Leakage Power = 0.000109941 W
            Runtime Dynamic Power = 5.06849e-06 W
            Runtime Dynamic Energy = 7.25445e-06 J
            Total Runtime Energy = 0.00329084 J

          Fill Buffer:
            Area = 0.246043 mm^2
            Peak Dynamic Power = 0.0110423 W
            Subthreshold Leakage Power = 0.00195087 W
            Gate Leakage Power = 9.82028e-05 W
            Runtime Dynamic Power = 4.44562e-06 W
            Runtime Dynamic Energy = 6.36294e-06 J
            Total Runtime Energy = 0.00293917 J

          Prefetch Buffer:
            Area = 0.246043 mm^2
            Peak Dynamic Power = 0.0110423 W
            Subthreshold Leakage Power = 0.00195087 W
            Gate Leakage Power = 9.82028e-05 W
            Runtime Dynamic Power = 2.23427e-06 W
            Runtime Dynamic Energy = 3.19788e-06 J
            Total Runtime Energy = 0.00293601 J

