gem5 Simulator System.  http://gem5.org
gem5 is copyrighted software; use the --copyright option for details.

gem5 compiled Sep 24 2013 03:08:53
gem5 started Sep 28 2013 10:04:18
gem5 executing on zizzer
command line: build/ALPHA/gem5.opt -d build/ALPHA/tests/opt/long/se/50.vortex/alpha/tru64/simple-timing -re tests/run.py build/ALPHA/tests/opt/long/se/50.vortex/alpha/tru64/simple-timing
Global frequency set at 1000000000000 ticks per second
info: Entering event queue @ 0.  Starting simulation...
info: Increasing stack size by one page.
Exiting @ tick 133634727000 because target called exit()
