
---------- Begin Simulation Statistics ----------
host_inst_rate                                  45830                       # Simulator instruction rate (inst/s)
host_mem_usage                                 156280                       # Number of bytes of host memory used
host_seconds                                  2005.28                       # Real time elapsed on the host
host_tick_rate                               49263361                       # Simulator tick rate (ticks/s)
sim_freq                                 1000000000000                       # Frequency of simulated ticks
sim_insts                                    91903056                       # Number of instructions simulated
sim_seconds                                  0.098787                       # Number of seconds simulated
sim_ticks                                 98787075000                       # Number of ticks simulated
system.cpu.AGEN-Unit.instReqsProcessed       26537108                       # Number of Instructions Requests that completed in this resource.
system.cpu.Branch-Predictor.BTBHits           5943749                       # Number of BTB hits
system.cpu.Branch-Predictor.BTBLookups        9141724                       # Number of BTB lookups
system.cpu.Branch-Predictor.RASInCorrect      1029596                       # Number of incorrect RAS predictions.
system.cpu.Branch-Predictor.condIncorrect     11377435                       # Number of conditional branches incorrect
system.cpu.Branch-Predictor.condPredicted      7465155                       # Number of conditional branches predicted
system.cpu.Branch-Predictor.instReqsProcessed     92001832                       # Number of Instructions Requests that completed in this resource.
system.cpu.Branch-Predictor.lookups          10240963                       # Number of BP lookups
system.cpu.Branch-Predictor.predictedNotTaken      2255511                       # Number of Branches Predicted As Not Taken (False).
system.cpu.Branch-Predictor.predictedTaken      7985452                       # Number of Branches Predicted As Taken (True).
system.cpu.Branch-Predictor.usedRAS           1029596                       # Number of times the RAS was used to get a target.
system.cpu.Decode-Unit.instReqsProcessed     92001832                       # Number of Instructions Requests that completed in this resource.
system.cpu.Execution-Unit.cyclesExecuted     64907308                       # Number of Cycles Execution Unit was used.
system.cpu.Execution-Unit.instReqsProcessed     64907696                       # Number of Instructions Requests that completed in this resource.
system.cpu.Execution-Unit.predictedNotTakenIncorrect        78179                       # Number of Branches Incorrectly Predicted As Not Taken).
system.cpu.Execution-Unit.predictedTakenIncorrect      3313804                       # Number of Branches Incorrectly Predicted As Taken.
system.cpu.Execution-Unit.utilization        0.328521                       # Utilization of Execution Unit (cycles / totalCycles).
system.cpu.Fetch-Seq-Unit.instReqsProcessed    195282323                       # Number of Instructions Requests that completed in this resource.
system.cpu.Graduation-Unit.instReqsProcessed     91903056                       # Number of Instructions Requests that completed in this resource.
system.cpu.Mult-Div-Unit.divInstReqsProcessed            0                       # Number of Divide Requests Processed.
system.cpu.Mult-Div-Unit.instReqsProcessed       916504                       # Number of Instructions Requests that completed in this resource.
system.cpu.Mult-Div-Unit.multInstReqsProcessed       458252                       # Number of Multiply Requests Processed.
system.cpu.RegFile-Manager.instReqsProcessed    196150553                       # Number of Instructions Requests that completed in this resource.
system.cpu.activity                         96.136450                       # Percentage of cycles cpu is active
system.cpu.committedInsts                    91903056                       # Number of Instructions Simulated (Per-Thread)
system.cpu.committedInsts_total              91903056                       # Number of Instructions Simulated (Total)
system.cpu.contextSwitches                          1                       # Number of context switches
system.cpu.cpi                               2.149810                       # CPI: Cycles Per Instruction (Per-Thread)
system.cpu.cpi_total                         2.149810                       # CPI: Total CPI of All Threads
system.cpu.dcache.ReadReq_accesses           19996198                       # number of ReadReq accesses(hits+misses)
system.cpu.dcache.ReadReq_avg_miss_latency        51560                       # average ReadReq miss latency
system.cpu.dcache.ReadReq_avg_mshr_miss_latency 48531.578947                       # average ReadReq mshr miss latency
system.cpu.dcache.ReadReq_hits               19995723                       # number of ReadReq hits
system.cpu.dcache.ReadReq_miss_latency       24491000                       # number of ReadReq miss cycles
system.cpu.dcache.ReadReq_miss_rate          0.000024                       # miss rate for ReadReq accesses
system.cpu.dcache.ReadReq_misses                  475                       # number of ReadReq misses
system.cpu.dcache.ReadReq_mshr_miss_latency     23052500                       # number of ReadReq MSHR miss cycles
system.cpu.dcache.ReadReq_mshr_miss_rate     0.000024                       # mshr miss rate for ReadReq accesses
system.cpu.dcache.ReadReq_mshr_misses             475                       # number of ReadReq MSHR misses
system.cpu.dcache.WriteReq_accesses           6501103                       # number of WriteReq accesses(hits+misses)
system.cpu.dcache.WriteReq_avg_miss_latency 56135.825713                       # average WriteReq miss latency
system.cpu.dcache.WriteReq_avg_mshr_miss_latency 53135.825713                       # average WriteReq mshr miss latency
system.cpu.dcache.WriteReq_hits               6499244                       # number of WriteReq hits
system.cpu.dcache.WriteReq_miss_latency     104356500                       # number of WriteReq miss cycles
system.cpu.dcache.WriteReq_miss_rate         0.000286                       # miss rate for WriteReq accesses
system.cpu.dcache.WriteReq_misses                1859                       # number of WriteReq misses
system.cpu.dcache.WriteReq_mshr_miss_latency     98779500                       # number of WriteReq MSHR miss cycles
system.cpu.dcache.WriteReq_mshr_miss_rate     0.000286                       # mshr miss rate for WriteReq accesses
system.cpu.dcache.WriteReq_mshr_misses           1859                       # number of WriteReq MSHR misses
system.cpu.dcache.avg_blocked_cycles::no_mshrs     no_value                       # average number of cycles each access was blocked
system.cpu.dcache.avg_blocked_cycles::no_targets     no_value                       # average number of cycles each access was blocked
system.cpu.dcache.avg_refs               11918.613585                       # Average number of references to valid blocks.
system.cpu.dcache.blocked::no_mshrs                 0                       # number of cycles access was blocked
system.cpu.dcache.blocked::no_targets               0                       # number of cycles access was blocked
system.cpu.dcache.blocked_cycles::no_mshrs            0                       # number of cycles access was blocked
system.cpu.dcache.blocked_cycles::no_targets            0                       # number of cycles access was blocked
system.cpu.dcache.cache_copies                      0                       # number of cache copies performed
system.cpu.dcache.demand_accesses            26497301                       # number of demand (read+write) accesses
system.cpu.dcache.demand_avg_miss_latency 55204.584404                       # average overall miss latency
system.cpu.dcache.demand_avg_mshr_miss_latency 52198.800343                       # average overall mshr miss latency
system.cpu.dcache.demand_hits                26494967                       # number of demand (read+write) hits
system.cpu.dcache.demand_miss_latency       128847500                       # number of demand (read+write) miss cycles
system.cpu.dcache.demand_miss_rate           0.000088                       # miss rate for demand accesses
system.cpu.dcache.demand_misses                  2334                       # number of demand (read+write) misses
system.cpu.dcache.demand_mshr_hits                  0                       # number of demand (read+write) MSHR hits
system.cpu.dcache.demand_mshr_miss_latency    121832000                       # number of demand (read+write) MSHR miss cycles
system.cpu.dcache.demand_mshr_miss_rate      0.000088                       # mshr miss rate for demand accesses
system.cpu.dcache.demand_mshr_misses             2334                       # number of demand (read+write) MSHR misses
system.cpu.dcache.fast_writes                       0                       # number of fast writes performed
system.cpu.dcache.mshr_cap_events                   0                       # number of times MSHR cap was activated
system.cpu.dcache.no_allocate_misses                0                       # Number of misses that were no-allocate
system.cpu.dcache.occ_%::0                   0.352013                       # Average percentage of cache occupancy
system.cpu.dcache.occ_blocks::0           1441.845036                       # Average occupied blocks per context
system.cpu.dcache.overall_accesses           26497301                       # number of overall (read+write) accesses
system.cpu.dcache.overall_avg_miss_latency 55204.584404                       # average overall miss latency
system.cpu.dcache.overall_avg_mshr_miss_latency 52198.800343                       # average overall mshr miss latency
system.cpu.dcache.overall_avg_mshr_uncacheable_latency     no_value                       # average overall mshr uncacheable latency
system.cpu.dcache.overall_hits               26494967                       # number of overall hits
system.cpu.dcache.overall_miss_latency      128847500                       # number of overall miss cycles
system.cpu.dcache.overall_miss_rate          0.000088                       # miss rate for overall accesses
system.cpu.dcache.overall_misses                 2334                       # number of overall misses
system.cpu.dcache.overall_mshr_hits                 0                       # number of overall MSHR hits
system.cpu.dcache.overall_mshr_miss_latency    121832000                       # number of overall MSHR miss cycles
system.cpu.dcache.overall_mshr_miss_rate     0.000088                       # mshr miss rate for overall accesses
system.cpu.dcache.overall_mshr_misses            2334                       # number of overall MSHR misses
system.cpu.dcache.overall_mshr_uncacheable_latency            0                       # number of overall MSHR uncacheable cycles
system.cpu.dcache.overall_mshr_uncacheable_misses            0                       # number of overall MSHR uncacheable misses
system.cpu.dcache.replacements                    157                       # number of replacements
system.cpu.dcache.sampled_refs                   2223                       # Sample count of references to valid blocks.
system.cpu.dcache.soft_prefetch_mshr_full            0                       # number of mshr full events for SW prefetching instrutions
system.cpu.dcache.tagsinuse               1441.845036                       # Cycle average of tags in use
system.cpu.dcache.total_refs                 26495078                       # Total number of references to valid blocks.
system.cpu.dcache.warmup_cycle                      0                       # Cycle when the warmup percentage was hit.
system.cpu.dcache.writebacks                      104                       # number of writebacks
system.cpu.dcache_port.instReqsProcessed     26537108                       # Number of Instructions Requests that completed in this resource.
system.cpu.dtb.data_accesses                 26497334                       # DTB accesses
system.cpu.dtb.data_acv                             0                       # DTB access violations
system.cpu.dtb.data_hits                     26497301                       # DTB hits
system.cpu.dtb.data_misses                         33                       # DTB misses
system.cpu.dtb.fetch_accesses                       0                       # ITB accesses
system.cpu.dtb.fetch_acv                            0                       # ITB acv
system.cpu.dtb.fetch_hits                           0                       # ITB hits
system.cpu.dtb.fetch_misses                         0                       # ITB misses
system.cpu.dtb.read_accesses                 19996208                       # DTB read accesses
system.cpu.dtb.read_acv                             0                       # DTB read access violations
system.cpu.dtb.read_hits                     19996198                       # DTB read hits
system.cpu.dtb.read_misses                         10                       # DTB read misses
system.cpu.dtb.write_accesses                 6501126                       # DTB write accesses
system.cpu.dtb.write_acv                            0                       # DTB write access violations
system.cpu.dtb.write_hits                     6501103                       # DTB write hits
system.cpu.dtb.write_misses                        23                       # DTB write misses
system.cpu.icache.ReadReq_accesses          103280491                       # number of ReadReq accesses(hits+misses)
system.cpu.icache.ReadReq_avg_miss_latency 27107.378354                       # average ReadReq miss latency
system.cpu.icache.ReadReq_avg_mshr_miss_latency 23969.601677                       # average ReadReq mshr miss latency
system.cpu.icache.ReadReq_hits              103271695                       # number of ReadReq hits
system.cpu.icache.ReadReq_miss_latency      238436500                       # number of ReadReq miss cycles
system.cpu.icache.ReadReq_miss_rate          0.000085                       # miss rate for ReadReq accesses
system.cpu.icache.ReadReq_misses                 8796                       # number of ReadReq misses
system.cpu.icache.ReadReq_mshr_hits               210                       # number of ReadReq MSHR hits
system.cpu.icache.ReadReq_mshr_miss_latency    205803000                       # number of ReadReq MSHR miss cycles
system.cpu.icache.ReadReq_mshr_miss_rate     0.000083                       # mshr miss rate for ReadReq accesses
system.cpu.icache.ReadReq_mshr_misses            8586                       # number of ReadReq MSHR misses
system.cpu.icache.avg_blocked_cycles::no_mshrs     no_value                       # average number of cycles each access was blocked
system.cpu.icache.avg_blocked_cycles::no_targets         2500                       # average number of cycles each access was blocked
system.cpu.icache.avg_refs               12027.916958                       # Average number of references to valid blocks.
system.cpu.icache.blocked::no_mshrs                 0                       # number of cycles access was blocked
system.cpu.icache.blocked::no_targets               1                       # number of cycles access was blocked
system.cpu.icache.blocked_cycles::no_mshrs            0                       # number of cycles access was blocked
system.cpu.icache.blocked_cycles::no_targets         2500                       # number of cycles access was blocked
system.cpu.icache.cache_copies                      0                       # number of cache copies performed
system.cpu.icache.demand_accesses           103280491                       # number of demand (read+write) accesses
system.cpu.icache.demand_avg_miss_latency 27107.378354                       # average overall miss latency
system.cpu.icache.demand_avg_mshr_miss_latency 23969.601677                       # average overall mshr miss latency
system.cpu.icache.demand_hits               103271695                       # number of demand (read+write) hits
system.cpu.icache.demand_miss_latency       238436500                       # number of demand (read+write) miss cycles
system.cpu.icache.demand_miss_rate           0.000085                       # miss rate for demand accesses
system.cpu.icache.demand_misses                  8796                       # number of demand (read+write) misses
system.cpu.icache.demand_mshr_hits                210                       # number of demand (read+write) MSHR hits
system.cpu.icache.demand_mshr_miss_latency    205803000                       # number of demand (read+write) MSHR miss cycles
system.cpu.icache.demand_mshr_miss_rate      0.000083                       # mshr miss rate for demand accesses
system.cpu.icache.demand_mshr_misses             8586                       # number of demand (read+write) MSHR misses
system.cpu.icache.fast_writes                       0                       # number of fast writes performed
system.cpu.icache.mshr_cap_events                   0                       # number of times MSHR cap was activated
system.cpu.icache.no_allocate_misses                0                       # Number of misses that were no-allocate
system.cpu.icache.occ_%::0                   0.697585                       # Average percentage of cache occupancy
system.cpu.icache.occ_blocks::0           1428.655102                       # Average occupied blocks per context
system.cpu.icache.overall_accesses          103280491                       # number of overall (read+write) accesses
system.cpu.icache.overall_avg_miss_latency 27107.378354                       # average overall miss latency
system.cpu.icache.overall_avg_mshr_miss_latency 23969.601677                       # average overall mshr miss latency
system.cpu.icache.overall_avg_mshr_uncacheable_latency     no_value                       # average overall mshr uncacheable latency
system.cpu.icache.overall_hits              103271695                       # number of overall hits
system.cpu.icache.overall_miss_latency      238436500                       # number of overall miss cycles
system.cpu.icache.overall_miss_rate          0.000085                       # miss rate for overall accesses
system.cpu.icache.overall_misses                 8796                       # number of overall misses
system.cpu.icache.overall_mshr_hits               210                       # number of overall MSHR hits
system.cpu.icache.overall_mshr_miss_latency    205803000                       # number of overall MSHR miss cycles
system.cpu.icache.overall_mshr_miss_rate     0.000083                       # mshr miss rate for overall accesses
system.cpu.icache.overall_mshr_misses            8586                       # number of overall MSHR misses
system.cpu.icache.overall_mshr_uncacheable_latency            0                       # number of overall MSHR uncacheable cycles
system.cpu.icache.overall_mshr_uncacheable_misses            0                       # number of overall MSHR uncacheable misses
system.cpu.icache.replacements                   6752                       # number of replacements
system.cpu.icache.sampled_refs                   8586                       # Sample count of references to valid blocks.
system.cpu.icache.soft_prefetch_mshr_full            0                       # number of mshr full events for SW prefetching instrutions
system.cpu.icache.tagsinuse               1428.655102                       # Cycle average of tags in use
system.cpu.icache.total_refs                103271695                       # Total number of references to valid blocks.
system.cpu.icache.warmup_cycle                      0                       # Cycle when the warmup percentage was hit.
system.cpu.icache.writebacks                        0                       # number of writebacks
system.cpu.icache_port.instReqsProcessed    103280490                       # Number of Instructions Requests that completed in this resource.
system.cpu.idleCycles                         7633377                       # Number of cycles cpu's stages were not processed
system.cpu.ipc                               0.465157                       # IPC: Instructions Per Cycle (Per-Thread)
system.cpu.ipc_total                         0.465157                       # IPC: Total IPC of All Threads
system.cpu.itb.data_accesses                        0                       # DTB accesses
system.cpu.itb.data_acv                             0                       # DTB access violations
system.cpu.itb.data_hits                            0                       # DTB hits
system.cpu.itb.data_misses                          0                       # DTB misses
system.cpu.itb.fetch_accesses               103280539                       # ITB accesses
system.cpu.itb.fetch_acv                            0                       # ITB acv
system.cpu.itb.fetch_hits                   103280492                       # ITB hits
system.cpu.itb.fetch_misses                        47                       # ITB misses
system.cpu.itb.read_accesses                        0                       # DTB read accesses
system.cpu.itb.read_acv                             0                       # DTB read access violations
system.cpu.itb.read_hits                            0                       # DTB read hits
system.cpu.itb.read_misses                          0                       # DTB read misses
system.cpu.itb.write_accesses                       0                       # DTB write accesses
system.cpu.itb.write_acv                            0                       # DTB write access violations
system.cpu.itb.write_hits                           0                       # DTB write hits
system.cpu.itb.write_misses                         0                       # DTB write misses
system.cpu.l2cache.ReadExReq_accesses            1748                       # number of ReadExReq accesses(hits+misses)
system.cpu.l2cache.ReadExReq_avg_miss_latency 52126.144165                       # average ReadExReq miss latency
system.cpu.l2cache.ReadExReq_avg_mshr_miss_latency 40005.720824                       # average ReadExReq mshr miss latency
system.cpu.l2cache.ReadExReq_miss_latency     91116500                       # number of ReadExReq miss cycles
system.cpu.l2cache.ReadExReq_miss_rate              1                       # miss rate for ReadExReq accesses
system.cpu.l2cache.ReadExReq_misses              1748                       # number of ReadExReq misses
system.cpu.l2cache.ReadExReq_mshr_miss_latency     69930000                       # number of ReadExReq MSHR miss cycles
system.cpu.l2cache.ReadExReq_mshr_miss_rate            1                       # mshr miss rate for ReadExReq accesses
system.cpu.l2cache.ReadExReq_mshr_misses         1748                       # number of ReadExReq MSHR misses
system.cpu.l2cache.ReadReq_accesses              9061                       # number of ReadReq accesses(hits+misses)
system.cpu.l2cache.ReadReq_avg_miss_latency 52164.544564                       # average ReadReq miss latency
system.cpu.l2cache.ReadReq_avg_mshr_miss_latency 40020.078355                       # average ReadReq mshr miss latency
system.cpu.l2cache.ReadReq_hits                  5998                       # number of ReadReq hits
system.cpu.l2cache.ReadReq_miss_latency     159780000                       # number of ReadReq miss cycles
system.cpu.l2cache.ReadReq_miss_rate         0.338042                       # miss rate for ReadReq accesses
system.cpu.l2cache.ReadReq_misses                3063                       # number of ReadReq misses
system.cpu.l2cache.ReadReq_mshr_miss_latency    122581500                       # number of ReadReq MSHR miss cycles
system.cpu.l2cache.ReadReq_mshr_miss_rate     0.338042                       # mshr miss rate for ReadReq accesses
system.cpu.l2cache.ReadReq_mshr_misses           3063                       # number of ReadReq MSHR misses
system.cpu.l2cache.UpgradeReq_accesses            111                       # number of UpgradeReq accesses(hits+misses)
system.cpu.l2cache.UpgradeReq_avg_miss_latency 52220.720721                       # average UpgradeReq miss latency
system.cpu.l2cache.UpgradeReq_avg_mshr_miss_latency 40009.009009                       # average UpgradeReq mshr miss latency
system.cpu.l2cache.UpgradeReq_miss_latency      5796500                       # number of UpgradeReq miss cycles
system.cpu.l2cache.UpgradeReq_miss_rate             1                       # miss rate for UpgradeReq accesses
system.cpu.l2cache.UpgradeReq_misses              111                       # number of UpgradeReq misses
system.cpu.l2cache.UpgradeReq_mshr_miss_latency      4441000                       # number of UpgradeReq MSHR miss cycles
system.cpu.l2cache.UpgradeReq_mshr_miss_rate            1                       # mshr miss rate for UpgradeReq accesses
system.cpu.l2cache.UpgradeReq_mshr_misses          111                       # number of UpgradeReq MSHR misses
system.cpu.l2cache.Writeback_accesses             104                       # number of Writeback accesses(hits+misses)
system.cpu.l2cache.Writeback_hits                 104                       # number of Writeback hits
system.cpu.l2cache.avg_blocked_cycles::no_mshrs     no_value                       # average number of cycles each access was blocked
system.cpu.l2cache.avg_blocked_cycles::no_targets     no_value                       # average number of cycles each access was blocked
system.cpu.l2cache.avg_refs                  1.974917                       # Average number of references to valid blocks.
system.cpu.l2cache.blocked::no_mshrs                0                       # number of cycles access was blocked
system.cpu.l2cache.blocked::no_targets              0                       # number of cycles access was blocked
system.cpu.l2cache.blocked_cycles::no_mshrs            0                       # number of cycles access was blocked
system.cpu.l2cache.blocked_cycles::no_targets            0                       # number of cycles access was blocked
system.cpu.l2cache.cache_copies                     0                       # number of cache copies performed
system.cpu.l2cache.demand_accesses              10809                       # number of demand (read+write) accesses
system.cpu.l2cache.demand_avg_miss_latency 52150.592392                       # average overall miss latency
system.cpu.l2cache.demand_avg_mshr_miss_latency 40014.861775                       # average overall mshr miss latency
system.cpu.l2cache.demand_hits                   5998                       # number of demand (read+write) hits
system.cpu.l2cache.demand_miss_latency      250896500                       # number of demand (read+write) miss cycles
system.cpu.l2cache.demand_miss_rate          0.445092                       # miss rate for demand accesses
system.cpu.l2cache.demand_misses                 4811                       # number of demand (read+write) misses
system.cpu.l2cache.demand_mshr_hits                 0                       # number of demand (read+write) MSHR hits
system.cpu.l2cache.demand_mshr_miss_latency    192511500                       # number of demand (read+write) MSHR miss cycles
system.cpu.l2cache.demand_mshr_miss_rate     0.445092                       # mshr miss rate for demand accesses
system.cpu.l2cache.demand_mshr_misses            4811                       # number of demand (read+write) MSHR misses
system.cpu.l2cache.fast_writes                      0                       # number of fast writes performed
system.cpu.l2cache.mshr_cap_events                  0                       # number of times MSHR cap was activated
system.cpu.l2cache.no_allocate_misses               0                       # Number of misses that were no-allocate
system.cpu.l2cache.occ_%::0                  0.061820                       # Average percentage of cache occupancy
system.cpu.l2cache.occ_%::1                  0.000419                       # Average percentage of cache occupancy
system.cpu.l2cache.occ_blocks::0          2025.719647                       # Average occupied blocks per context
system.cpu.l2cache.occ_blocks::1            13.727958                       # Average occupied blocks per context
system.cpu.l2cache.overall_accesses             10809                       # number of overall (read+write) accesses
system.cpu.l2cache.overall_avg_miss_latency 52150.592392                       # average overall miss latency
system.cpu.l2cache.overall_avg_mshr_miss_latency 40014.861775                       # average overall mshr miss latency
system.cpu.l2cache.overall_avg_mshr_uncacheable_latency     no_value                       # average overall mshr uncacheable latency
system.cpu.l2cache.overall_hits                  5998                       # number of overall hits
system.cpu.l2cache.overall_miss_latency     250896500                       # number of overall miss cycles
system.cpu.l2cache.overall_miss_rate         0.445092                       # miss rate for overall accesses
system.cpu.l2cache.overall_misses                4811                       # number of overall misses
system.cpu.l2cache.overall_mshr_hits                0                       # number of overall MSHR hits
system.cpu.l2cache.overall_mshr_miss_latency    192511500                       # number of overall MSHR miss cycles
system.cpu.l2cache.overall_mshr_miss_rate     0.445092                       # mshr miss rate for overall accesses
system.cpu.l2cache.overall_mshr_misses           4811                       # number of overall MSHR misses
system.cpu.l2cache.overall_mshr_uncacheable_latency            0                       # number of overall MSHR uncacheable cycles
system.cpu.l2cache.overall_mshr_uncacheable_misses            0                       # number of overall MSHR uncacheable misses
system.cpu.l2cache.replacements                     0                       # number of replacements
system.cpu.l2cache.sampled_refs                  3030                       # Sample count of references to valid blocks.
system.cpu.l2cache.soft_prefetch_mshr_full            0                       # number of mshr full events for SW prefetching instrutions
system.cpu.l2cache.tagsinuse              2039.447605                       # Cycle average of tags in use
system.cpu.l2cache.total_refs                    5984                       # Total number of references to valid blocks.
system.cpu.l2cache.warmup_cycle                     0                       # Cycle when the warmup percentage was hit.
system.cpu.l2cache.writebacks                       0                       # number of writebacks
system.cpu.numCycles                        197574151                       # number of cpu cycles simulated
system.cpu.runCycles                        189940774                       # Number of cycles cpu stages are processed.
system.cpu.smtCommittedInsts                        0                       # Number of SMT Instructions Simulated (Per-Thread)
system.cpu.smtCycles                                0                       # Total number of cycles that the CPU was in SMT-mode
system.cpu.smt_cpi                           no_value                       # CPI: Total SMT-CPI
system.cpu.smt_ipc                           no_value                       # IPC: Total SMT-IPC
system.cpu.stage-0.idleCycles                94293612                       # Number of cycles 0 instructions are processed.
system.cpu.stage-0.runCycles                103280539                       # Number of cycles 1+ instructions are processed.
system.cpu.stage-0.utilization              52.274318                       # Percentage of cycles stage was utilized (processing insts).
system.cpu.stage-1.idleCycles               105572319                       # Number of cycles 0 instructions are processed.
system.cpu.stage-1.runCycles                 92001832                       # Number of cycles 1+ instructions are processed.
system.cpu.stage-1.utilization              46.565723                       # Percentage of cycles stage was utilized (processing insts).
system.cpu.stage-2.idleCycles               104081667                       # Number of cycles 0 instructions are processed.
system.cpu.stage-2.runCycles                 93492484                       # Number of cycles 1+ instructions are processed.
system.cpu.stage-2.utilization              47.320200                       # Percentage of cycles stage was utilized (processing insts).
system.cpu.stage-3.idleCycles               171037020                       # Number of cycles 0 instructions are processed.
system.cpu.stage-3.runCycles                 26537131                       # Number of cycles 1+ instructions are processed.
system.cpu.stage-3.utilization              13.431479                       # Percentage of cycles stage was utilized (processing insts).
system.cpu.stage-4.idleCycles               105671095                       # Number of cycles 0 instructions are processed.
system.cpu.stage-4.runCycles                 91903056                       # Number of cycles 1+ instructions are processed.
system.cpu.stage-4.utilization              46.515729                       # Percentage of cycles stage was utilized (processing insts).
system.cpu.threadCycles                     197574151                       # Total Number of Cycles A Thread Was Active in CPU (Per-Thread)
system.cpu.workload.PROG:num_syscalls             389                       # Number of system calls

---------- End Simulation Statistics   ----------
