
---------- Begin Simulation Statistics ----------
sim_seconds                                  2.846007                       # Number of seconds simulated
sim_ticks                                2846007259500                       # Number of ticks simulated
final_tick                               2846007259500                       # Number of ticks from beginning of simulation (restored from checkpoints and never reset)
sim_freq                                 1000000000000                       # Frequency of simulated ticks
host_inst_rate                                1390065                       # Simulator instruction rate (inst/s)
host_op_rate                                  2165848                       # Simulator op (including micro ops) rate (op/s)
host_tick_rate                             1315169413                       # Simulator tick rate (ticks/s)
host_mem_usage                                 216596                       # Number of bytes of host memory used
host_seconds                                  2163.99                       # Real time elapsed on the host
sim_insts                                  3008081057                       # Number of instructions simulated
sim_ops                                    4686862651                       # Number of ops (including micro ops) simulated
system.physmem.bytes_read::cpu.inst       32105863408                       # Number of bytes read from this memory
system.physmem.bytes_read::cpu.data        5023868347                       # Number of bytes read from this memory
system.physmem.bytes_read::total          37129731755                       # Number of bytes read from this memory
system.physmem.bytes_inst_read::cpu.inst  32105863408                       # Number of instructions bytes read from this memory
system.physmem.bytes_inst_read::total     32105863408                       # Number of instructions bytes read from this memory
system.physmem.bytes_written::cpu.data     1544656790                       # Number of bytes written to this memory
system.physmem.bytes_written::total        1544656790                       # Number of bytes written to this memory
system.physmem.num_reads::cpu.inst         4013232926                       # Number of read requests responded to by this memory
system.physmem.num_reads::cpu.data         1239184749                       # Number of read requests responded to by this memory
system.physmem.num_reads::total            5252417675                       # Number of read requests responded to by this memory
system.physmem.num_writes::cpu.data         438528337                       # Number of write requests responded to by this memory
system.physmem.num_writes::total            438528337                       # Number of write requests responded to by this memory
system.physmem.bw_read::cpu.inst          11281019506                       # Total read bandwidth from this memory (bytes/s)
system.physmem.bw_read::cpu.data           1765233848                       # Total read bandwidth from this memory (bytes/s)
system.physmem.bw_read::total             13046253354                       # Total read bandwidth from this memory (bytes/s)
system.physmem.bw_inst_read::cpu.inst     11281019506                       # Instruction read bandwidth from this memory (bytes/s)
system.physmem.bw_inst_read::total        11281019506                       # Instruction read bandwidth from this memory (bytes/s)
system.physmem.bw_write::cpu.data           542745204                       # Write bandwidth from this memory (bytes/s)
system.physmem.bw_write::total              542745204                       # Write bandwidth from this memory (bytes/s)
system.physmem.bw_total::cpu.inst         11281019506                       # Total bandwidth to/from this memory (bytes/s)
system.physmem.bw_total::cpu.data          2307979052                       # Total bandwidth to/from this memory (bytes/s)
system.physmem.bw_total::total            13588998558                       # Total bandwidth to/from this memory (bytes/s)
system.cpu.workload.num_syscalls                   46                       # Number of system calls
system.cpu.numCycles                       5692014520                       # number of cpu cycles simulated
system.cpu.numWorkItemsStarted                      0                       # number of work items this cpu started
system.cpu.numWorkItemsCompleted                    0                       # number of work items this cpu completed
system.cpu.committedInsts                  3008081057                       # Number of instructions committed
system.cpu.committedOps                    4686862651                       # Number of ops (including micro ops) committed
system.cpu.num_int_alu_accesses            4686862580                       # Number of integer alu accesses
system.cpu.num_fp_alu_accesses                      0                       # Number of float alu accesses
system.cpu.num_func_calls                           0                       # number of times a function call or return occured
system.cpu.num_conditional_control_insts    182173305                       # number of instructions that are conditional controls
system.cpu.num_int_insts                   4686862580                       # number of integer instructions
system.cpu.num_fp_insts                             0                       # number of float instructions
system.cpu.num_int_register_reads         14165752766                       # number of times the integer registers were read
system.cpu.num_int_register_writes         6716691823                       # number of times the integer registers were written
system.cpu.num_fp_register_reads                    0                       # number of times the floating registers were read
system.cpu.num_fp_register_writes                   0                       # number of times the floating registers were written
system.cpu.num_mem_refs                    1677713086                       # number of memory refs
system.cpu.num_load_insts                  1239184749                       # Number of load instructions
system.cpu.num_store_insts                  438528337                       # Number of store instructions
system.cpu.num_idle_cycles                          0                       # Number of idle cycles
system.cpu.num_busy_cycles                 5692014520                       # Number of busy cycles
system.cpu.not_idle_fraction                        1                       # Percentage of non-idle cycles
system.cpu.idle_fraction                            0                       # Percentage of idle cycles

---------- End Simulation Statistics   ----------
