
---------- Begin Simulation Statistics ----------
sim_seconds                                 47.602418                       # Number of seconds simulated
sim_ticks                                47602418253500                       # Number of ticks simulated
final_tick                               47602418253500                       # Number of ticks from beginning of simulation (restored from checkpoints and never reset)
sim_freq                                 1000000000000                       # Frequency of simulated ticks
host_inst_rate                                 704375                       # Simulator instruction rate (inst/s)
host_op_rate                                   828740                       # Simulator op (including micro ops) rate (op/s)
host_tick_rate                            38464814262                       # Simulator tick rate (ticks/s)
host_mem_usage                                 746580                       # Number of bytes of host memory used
host_seconds                                  1237.56                       # Real time elapsed on the host
sim_insts                                   871704321                       # Number of instructions simulated
sim_ops                                    1025613965                       # Number of ops (including micro ops) simulated
system.voltage_domain.voltage                       1                       # Voltage in Volts
system.clk_domain.clock                          1000                       # Clock period in ticks
system.physmem.bytes_read::cpu0.dtb.walker       106624                       # Number of bytes read from this memory
system.physmem.bytes_read::cpu0.itb.walker       114944                       # Number of bytes read from this memory
system.physmem.bytes_read::cpu0.inst          3306740                       # Number of bytes read from this memory
system.physmem.bytes_read::cpu0.data         39207752                       # Number of bytes read from this memory
system.physmem.bytes_read::cpu0.l2cache.prefetcher     13461760                       # Number of bytes read from this memory
system.physmem.bytes_read::cpu1.dtb.walker        71360                       # Number of bytes read from this memory
system.physmem.bytes_read::cpu1.itb.walker        71552                       # Number of bytes read from this memory
system.physmem.bytes_read::cpu1.inst          2461816                       # Number of bytes read from this memory
system.physmem.bytes_read::cpu1.data         13970768                       # Number of bytes read from this memory
system.physmem.bytes_read::cpu1.l2cache.prefetcher      8718016                       # Number of bytes read from this memory
system.physmem.bytes_read::realview.ide        430784                       # Number of bytes read from this memory
system.physmem.bytes_read::total             81922116                       # Number of bytes read from this memory
system.physmem.bytes_inst_read::cpu0.inst      3306740                       # Number of instructions bytes read from this memory
system.physmem.bytes_inst_read::cpu1.inst      2461816                       # Number of instructions bytes read from this memory
system.physmem.bytes_inst_read::total         5768556                       # Number of instructions bytes read from this memory
system.physmem.bytes_written::writebacks     69209472                       # Number of bytes written to this memory
system.physmem.bytes_written::cpu0.data         20580                       # Number of bytes written to this memory
system.physmem.bytes_written::cpu1.data             4                       # Number of bytes written to this memory
system.physmem.bytes_written::total          69230056                       # Number of bytes written to this memory
system.physmem.num_reads::cpu0.dtb.walker         1666                       # Number of read requests responded to by this memory
system.physmem.num_reads::cpu0.itb.walker         1796                       # Number of read requests responded to by this memory
system.physmem.num_reads::cpu0.inst             92075                       # Number of read requests responded to by this memory
system.physmem.num_reads::cpu0.data            612634                       # Number of read requests responded to by this memory
system.physmem.num_reads::cpu0.l2cache.prefetcher       210340                       # Number of read requests responded to by this memory
system.physmem.num_reads::cpu1.dtb.walker         1115                       # Number of read requests responded to by this memory
system.physmem.num_reads::cpu1.itb.walker         1118                       # Number of read requests responded to by this memory
system.physmem.num_reads::cpu1.inst             38554                       # Number of read requests responded to by this memory
system.physmem.num_reads::cpu1.data            218306                       # Number of read requests responded to by this memory
system.physmem.num_reads::cpu1.l2cache.prefetcher       136219                       # Number of read requests responded to by this memory
system.physmem.num_reads::realview.ide           6731                       # Number of read requests responded to by this memory
system.physmem.num_reads::total               1320554                       # Number of read requests responded to by this memory
system.physmem.num_writes::writebacks         1081398                       # Number of write requests responded to by this memory
system.physmem.num_writes::cpu0.data             2573                       # Number of write requests responded to by this memory
system.physmem.num_writes::cpu1.data                1                       # Number of write requests responded to by this memory
system.physmem.num_writes::total              1083972                       # Number of write requests responded to by this memory
system.physmem.bw_read::cpu0.dtb.walker          2240                       # Total read bandwidth from this memory (bytes/s)
system.physmem.bw_read::cpu0.itb.walker          2415                       # Total read bandwidth from this memory (bytes/s)
system.physmem.bw_read::cpu0.inst               69466                       # Total read bandwidth from this memory (bytes/s)
system.physmem.bw_read::cpu0.data              823650                       # Total read bandwidth from this memory (bytes/s)
system.physmem.bw_read::cpu0.l2cache.prefetcher       282796                       # Total read bandwidth from this memory (bytes/s)
system.physmem.bw_read::cpu1.dtb.walker          1499                       # Total read bandwidth from this memory (bytes/s)
system.physmem.bw_read::cpu1.itb.walker          1503                       # Total read bandwidth from this memory (bytes/s)
system.physmem.bw_read::cpu1.inst               51716                       # Total read bandwidth from this memory (bytes/s)
system.physmem.bw_read::cpu1.data              293489                       # Total read bandwidth from this memory (bytes/s)
system.physmem.bw_read::cpu1.l2cache.prefetcher       183142                       # Total read bandwidth from this memory (bytes/s)
system.physmem.bw_read::realview.ide             9050                       # Total read bandwidth from this memory (bytes/s)
system.physmem.bw_read::total                 1720965                       # Total read bandwidth from this memory (bytes/s)
system.physmem.bw_inst_read::cpu0.inst          69466                       # Instruction read bandwidth from this memory (bytes/s)
system.physmem.bw_inst_read::cpu1.inst          51716                       # Instruction read bandwidth from this memory (bytes/s)
system.physmem.bw_inst_read::total             121182                       # Instruction read bandwidth from this memory (bytes/s)
system.physmem.bw_write::writebacks           1453907                       # Write bandwidth from this memory (bytes/s)
system.physmem.bw_write::cpu0.data                432                       # Write bandwidth from this memory (bytes/s)
system.physmem.bw_write::cpu1.data                  0                       # Write bandwidth from this memory (bytes/s)
system.physmem.bw_write::total                1454339                       # Write bandwidth from this memory (bytes/s)
system.physmem.bw_total::writebacks           1453907                       # Total bandwidth to/from this memory (bytes/s)
system.physmem.bw_total::cpu0.dtb.walker         2240                       # Total bandwidth to/from this memory (bytes/s)
system.physmem.bw_total::cpu0.itb.walker         2415                       # Total bandwidth to/from this memory (bytes/s)
system.physmem.bw_total::cpu0.inst              69466                       # Total bandwidth to/from this memory (bytes/s)
system.physmem.bw_total::cpu0.data             824083                       # Total bandwidth to/from this memory (bytes/s)
system.physmem.bw_total::cpu0.l2cache.prefetcher       282796                       # Total bandwidth to/from this memory (bytes/s)
system.physmem.bw_total::cpu1.dtb.walker         1499                       # Total bandwidth to/from this memory (bytes/s)
system.physmem.bw_total::cpu1.itb.walker         1503                       # Total bandwidth to/from this memory (bytes/s)
system.physmem.bw_total::cpu1.inst              51716                       # Total bandwidth to/from this memory (bytes/s)
system.physmem.bw_total::cpu1.data             293489                       # Total bandwidth to/from this memory (bytes/s)
system.physmem.bw_total::cpu1.l2cache.prefetcher       183142                       # Total bandwidth to/from this memory (bytes/s)
system.physmem.bw_total::realview.ide            9050                       # Total bandwidth to/from this memory (bytes/s)
system.physmem.bw_total::total                3175304                       # Total bandwidth to/from this memory (bytes/s)
system.physmem.readReqs                       1320554                       # Number of read requests accepted
system.physmem.writeReqs                      1083972                       # Number of write requests accepted
system.physmem.readBursts                     1320554                       # Number of DRAM read bursts, including those serviced by the write queue
system.physmem.writeBursts                    1083972                       # Number of DRAM write bursts, including those merged in the write queue
system.physmem.bytesReadDRAM                 84482048                       # Total number of bytes read from DRAM
system.physmem.bytesReadWrQ                     33408                       # Total number of bytes read from write queue
system.physmem.bytesWritten                  69229248                       # Total number of bytes written to DRAM
system.physmem.bytesReadSys                  81922116                       # Total read bytes from the system interface side
system.physmem.bytesWrittenSys               69230056                       # Total written bytes from the system interface side
system.physmem.servicedByWrQ                      522                       # Number of DRAM read bursts serviced by the write queue
system.physmem.mergedWrBursts                    2246                       # Number of DRAM write bursts merged with an existing one
system.physmem.neitherReadNorWriteReqs              0                       # Number of requests that are neither read nor write
system.physmem.perBankRdBursts::0               79060                       # Per bank write bursts
system.physmem.perBankRdBursts::1               84693                       # Per bank write bursts
system.physmem.perBankRdBursts::2               79264                       # Per bank write bursts
system.physmem.perBankRdBursts::3               82906                       # Per bank write bursts
system.physmem.perBankRdBursts::4               76161                       # Per bank write bursts
system.physmem.perBankRdBursts::5               86285                       # Per bank write bursts
system.physmem.perBankRdBursts::6               80943                       # Per bank write bursts
system.physmem.perBankRdBursts::7               81570                       # Per bank write bursts
system.physmem.perBankRdBursts::8               74520                       # Per bank write bursts
system.physmem.perBankRdBursts::9              121634                       # Per bank write bursts
system.physmem.perBankRdBursts::10              72298                       # Per bank write bursts
system.physmem.perBankRdBursts::11              79752                       # Per bank write bursts
system.physmem.perBankRdBursts::12              77563                       # Per bank write bursts
system.physmem.perBankRdBursts::13              85585                       # Per bank write bursts
system.physmem.perBankRdBursts::14              78768                       # Per bank write bursts
system.physmem.perBankRdBursts::15              79030                       # Per bank write bursts
system.physmem.perBankWrBursts::0               65472                       # Per bank write bursts
system.physmem.perBankWrBursts::1               70626                       # Per bank write bursts
system.physmem.perBankWrBursts::2               66791                       # Per bank write bursts
system.physmem.perBankWrBursts::3               69615                       # Per bank write bursts
system.physmem.perBankWrBursts::4               63756                       # Per bank write bursts
system.physmem.perBankWrBursts::5               71331                       # Per bank write bursts
system.physmem.perBankWrBursts::6               67500                       # Per bank write bursts
system.physmem.perBankWrBursts::7               68943                       # Per bank write bursts
system.physmem.perBankWrBursts::8               63410                       # Per bank write bursts
system.physmem.perBankWrBursts::9               68673                       # Per bank write bursts
system.physmem.perBankWrBursts::10              63007                       # Per bank write bursts
system.physmem.perBankWrBursts::11              67951                       # Per bank write bursts
system.physmem.perBankWrBursts::12              66506                       # Per bank write bursts
system.physmem.perBankWrBursts::13              73077                       # Per bank write bursts
system.physmem.perBankWrBursts::14              66769                       # Per bank write bursts
system.physmem.perBankWrBursts::15              68280                       # Per bank write bursts
system.physmem.numRdRetry                           0                       # Number of times read queue was full causing retry
system.physmem.numWrRetry                          42                       # Number of times write queue was full causing retry
system.physmem.totGap                    47602414888000                       # Total gap between requests
system.physmem.readPktSize::0                       0                       # Read request sizes (log2)
system.physmem.readPktSize::1                       0                       # Read request sizes (log2)
system.physmem.readPktSize::2                   43195                       # Read request sizes (log2)
system.physmem.readPktSize::3                      25                       # Read request sizes (log2)
system.physmem.readPktSize::4                       5                       # Read request sizes (log2)
system.physmem.readPktSize::5                       0                       # Read request sizes (log2)
system.physmem.readPktSize::6                 1277329                       # Read request sizes (log2)
system.physmem.writePktSize::0                      0                       # Write request sizes (log2)
system.physmem.writePktSize::1                      0                       # Write request sizes (log2)
system.physmem.writePktSize::2                      2                       # Write request sizes (log2)
system.physmem.writePktSize::3                   2572                       # Write request sizes (log2)
system.physmem.writePktSize::4                      0                       # Write request sizes (log2)
system.physmem.writePktSize::5                      0                       # Write request sizes (log2)
system.physmem.writePktSize::6                1081398                       # Write request sizes (log2)
system.physmem.rdQLenPdf::0                   1104957                       # What read queue length does an incoming req see
system.physmem.rdQLenPdf::1                     68933                       # What read queue length does an incoming req see
system.physmem.rdQLenPdf::2                     30329                       # What read queue length does an incoming req see
system.physmem.rdQLenPdf::3                     25891                       # What read queue length does an incoming req see
system.physmem.rdQLenPdf::4                     22057                       # What read queue length does an incoming req see
system.physmem.rdQLenPdf::5                     19390                       # What read queue length does an incoming req see
system.physmem.rdQLenPdf::6                     16894                       # What read queue length does an incoming req see
system.physmem.rdQLenPdf::7                     14853                       # What read queue length does an incoming req see
system.physmem.rdQLenPdf::8                     11934                       # What read queue length does an incoming req see
system.physmem.rdQLenPdf::9                      1802                       # What read queue length does an incoming req see
system.physmem.rdQLenPdf::10                      867                       # What read queue length does an incoming req see
system.physmem.rdQLenPdf::11                      532                       # What read queue length does an incoming req see
system.physmem.rdQLenPdf::12                      435                       # What read queue length does an incoming req see
system.physmem.rdQLenPdf::13                      305                       # What read queue length does an incoming req see
system.physmem.rdQLenPdf::14                      221                       # What read queue length does an incoming req see
system.physmem.rdQLenPdf::15                      191                       # What read queue length does an incoming req see
system.physmem.rdQLenPdf::16                      164                       # What read queue length does an incoming req see
system.physmem.rdQLenPdf::17                      130                       # What read queue length does an incoming req see
system.physmem.rdQLenPdf::18                       81                       # What read queue length does an incoming req see
system.physmem.rdQLenPdf::19                       59                       # What read queue length does an incoming req see
system.physmem.rdQLenPdf::20                        6                       # What read queue length does an incoming req see
system.physmem.rdQLenPdf::21                        1                       # What read queue length does an incoming req see
system.physmem.rdQLenPdf::22                        0                       # What read queue length does an incoming req see
system.physmem.rdQLenPdf::23                        0                       # What read queue length does an incoming req see
system.physmem.rdQLenPdf::24                        0                       # What read queue length does an incoming req see
system.physmem.rdQLenPdf::25                        0                       # What read queue length does an incoming req see
system.physmem.rdQLenPdf::26                        0                       # What read queue length does an incoming req see
system.physmem.rdQLenPdf::27                        0                       # What read queue length does an incoming req see
system.physmem.rdQLenPdf::28                        0                       # What read queue length does an incoming req see
system.physmem.rdQLenPdf::29                        0                       # What read queue length does an incoming req see
system.physmem.rdQLenPdf::30                        0                       # What read queue length does an incoming req see
system.physmem.rdQLenPdf::31                        0                       # What read queue length does an incoming req see
system.physmem.wrQLenPdf::0                         1                       # What write queue length does an incoming req see
system.physmem.wrQLenPdf::1                         1                       # What write queue length does an incoming req see
system.physmem.wrQLenPdf::2                         1                       # What write queue length does an incoming req see
system.physmem.wrQLenPdf::3                         1                       # What write queue length does an incoming req see
system.physmem.wrQLenPdf::4                         1                       # What write queue length does an incoming req see
system.physmem.wrQLenPdf::5                         1                       # What write queue length does an incoming req see
system.physmem.wrQLenPdf::6                         1                       # What write queue length does an incoming req see
system.physmem.wrQLenPdf::7                         1                       # What write queue length does an incoming req see
system.physmem.wrQLenPdf::8                         1                       # What write queue length does an incoming req see
system.physmem.wrQLenPdf::9                         1                       # What write queue length does an incoming req see
system.physmem.wrQLenPdf::10                        1                       # What write queue length does an incoming req see
system.physmem.wrQLenPdf::11                        1                       # What write queue length does an incoming req see
system.physmem.wrQLenPdf::12                        1                       # What write queue length does an incoming req see
system.physmem.wrQLenPdf::13                        1                       # What write queue length does an incoming req see
system.physmem.wrQLenPdf::14                        1                       # What write queue length does an incoming req see
system.physmem.wrQLenPdf::15                    18639                       # What write queue length does an incoming req see
system.physmem.wrQLenPdf::16                    22143                       # What write queue length does an incoming req see
system.physmem.wrQLenPdf::17                    48134                       # What write queue length does an incoming req see
system.physmem.wrQLenPdf::18                    53739                       # What write queue length does an incoming req see
system.physmem.wrQLenPdf::19                    58424                       # What write queue length does an incoming req see
system.physmem.wrQLenPdf::20                    60173                       # What write queue length does an incoming req see
system.physmem.wrQLenPdf::21                    62461                       # What write queue length does an incoming req see
system.physmem.wrQLenPdf::22                    64493                       # What write queue length does an incoming req see
system.physmem.wrQLenPdf::23                    65899                       # What write queue length does an incoming req see
system.physmem.wrQLenPdf::24                    66079                       # What write queue length does an incoming req see
system.physmem.wrQLenPdf::25                    68869                       # What write queue length does an incoming req see
system.physmem.wrQLenPdf::26                    71761                       # What write queue length does an incoming req see
system.physmem.wrQLenPdf::27                    68201                       # What write queue length does an incoming req see
system.physmem.wrQLenPdf::28                    69441                       # What write queue length does an incoming req see
system.physmem.wrQLenPdf::29                    73837                       # What write queue length does an incoming req see
system.physmem.wrQLenPdf::30                    67956                       # What write queue length does an incoming req see
system.physmem.wrQLenPdf::31                    64592                       # What write queue length does an incoming req see
system.physmem.wrQLenPdf::32                    63507                       # What write queue length does an incoming req see
system.physmem.wrQLenPdf::33                     2802                       # What write queue length does an incoming req see
system.physmem.wrQLenPdf::34                     1216                       # What write queue length does an incoming req see
system.physmem.wrQLenPdf::35                      964                       # What write queue length does an incoming req see
system.physmem.wrQLenPdf::36                      646                       # What write queue length does an incoming req see
system.physmem.wrQLenPdf::37                      634                       # What write queue length does an incoming req see
system.physmem.wrQLenPdf::38                      560                       # What write queue length does an incoming req see
system.physmem.wrQLenPdf::39                      522                       # What write queue length does an incoming req see
system.physmem.wrQLenPdf::40                      406                       # What write queue length does an incoming req see
system.physmem.wrQLenPdf::41                      464                       # What write queue length does an incoming req see
system.physmem.wrQLenPdf::42                      357                       # What write queue length does an incoming req see
system.physmem.wrQLenPdf::43                      329                       # What write queue length does an incoming req see
system.physmem.wrQLenPdf::44                      376                       # What write queue length does an incoming req see
system.physmem.wrQLenPdf::45                      330                       # What write queue length does an incoming req see
system.physmem.wrQLenPdf::46                      297                       # What write queue length does an incoming req see
system.physmem.wrQLenPdf::47                      319                       # What write queue length does an incoming req see
system.physmem.wrQLenPdf::48                      247                       # What write queue length does an incoming req see
system.physmem.wrQLenPdf::49                      280                       # What write queue length does an incoming req see
system.physmem.wrQLenPdf::50                      274                       # What write queue length does an incoming req see
system.physmem.wrQLenPdf::51                      222                       # What write queue length does an incoming req see
system.physmem.wrQLenPdf::52                      285                       # What write queue length does an incoming req see
system.physmem.wrQLenPdf::53                      193                       # What write queue length does an incoming req see
system.physmem.wrQLenPdf::54                      233                       # What write queue length does an incoming req see
system.physmem.wrQLenPdf::55                      172                       # What write queue length does an incoming req see
system.physmem.wrQLenPdf::56                      189                       # What write queue length does an incoming req see
system.physmem.wrQLenPdf::57                      207                       # What write queue length does an incoming req see
system.physmem.wrQLenPdf::58                      141                       # What write queue length does an incoming req see
system.physmem.wrQLenPdf::59                      147                       # What write queue length does an incoming req see
system.physmem.wrQLenPdf::60                      149                       # What write queue length does an incoming req see
system.physmem.wrQLenPdf::61                      154                       # What write queue length does an incoming req see
system.physmem.wrQLenPdf::62                      119                       # What write queue length does an incoming req see
system.physmem.wrQLenPdf::63                      129                       # What write queue length does an incoming req see
system.physmem.bytesPerActivate::samples       850234                       # Bytes accessed per row activation
system.physmem.bytesPerActivate::mean      180.786598                       # Bytes accessed per row activation
system.physmem.bytesPerActivate::gmean     111.487051                       # Bytes accessed per row activation
system.physmem.bytesPerActivate::stdev     240.213026                       # Bytes accessed per row activation
system.physmem.bytesPerActivate::0-127         527654     62.06%     62.06% # Bytes accessed per row activation
system.physmem.bytesPerActivate::128-255       158419     18.63%     80.69% # Bytes accessed per row activation
system.physmem.bytesPerActivate::256-383        52205      6.14%     86.83% # Bytes accessed per row activation
system.physmem.bytesPerActivate::384-511        27644      3.25%     90.08% # Bytes accessed per row activation
system.physmem.bytesPerActivate::512-639        18445      2.17%     92.25% # Bytes accessed per row activation
system.physmem.bytesPerActivate::640-767        11596      1.36%     93.62% # Bytes accessed per row activation
system.physmem.bytesPerActivate::768-895         9081      1.07%     94.68% # Bytes accessed per row activation
system.physmem.bytesPerActivate::896-1023         9121      1.07%     95.76% # Bytes accessed per row activation
system.physmem.bytesPerActivate::1024-1151        36069      4.24%    100.00% # Bytes accessed per row activation
system.physmem.bytesPerActivate::total         850234                       # Bytes accessed per row activation
system.physmem.rdPerTurnAround::samples         60429                       # Reads before turning the bus around for writes
system.physmem.rdPerTurnAround::mean        21.843949                       # Reads before turning the bus around for writes
system.physmem.rdPerTurnAround::stdev      329.896328                       # Reads before turning the bus around for writes
system.physmem.rdPerTurnAround::0-4095          60426    100.00%    100.00% # Reads before turning the bus around for writes
system.physmem.rdPerTurnAround::4096-8191            1      0.00%    100.00% # Reads before turning the bus around for writes
system.physmem.rdPerTurnAround::20480-24575            1      0.00%    100.00% # Reads before turning the bus around for writes
system.physmem.rdPerTurnAround::77824-81919            1      0.00%    100.00% # Reads before turning the bus around for writes
system.physmem.rdPerTurnAround::total           60429                       # Reads before turning the bus around for writes
system.physmem.wrPerTurnAround::samples         60429                       # Writes before turning the bus around for reads
system.physmem.wrPerTurnAround::mean        17.900462                       # Writes before turning the bus around for reads
system.physmem.wrPerTurnAround::gmean       17.285869                       # Writes before turning the bus around for reads
system.physmem.wrPerTurnAround::stdev        7.671229                       # Writes before turning the bus around for reads
system.physmem.wrPerTurnAround::16-19           56824     94.03%     94.03% # Writes before turning the bus around for reads
system.physmem.wrPerTurnAround::20-23            1552      2.57%     96.60% # Writes before turning the bus around for reads
system.physmem.wrPerTurnAround::24-27             279      0.46%     97.06% # Writes before turning the bus around for reads
system.physmem.wrPerTurnAround::28-31             180      0.30%     97.36% # Writes before turning the bus around for reads
system.physmem.wrPerTurnAround::32-35             145      0.24%     97.60% # Writes before turning the bus around for reads
system.physmem.wrPerTurnAround::36-39             117      0.19%     97.80% # Writes before turning the bus around for reads
system.physmem.wrPerTurnAround::40-43             182      0.30%     98.10% # Writes before turning the bus around for reads
system.physmem.wrPerTurnAround::44-47              82      0.14%     98.23% # Writes before turning the bus around for reads
system.physmem.wrPerTurnAround::48-51             275      0.46%     98.69% # Writes before turning the bus around for reads
system.physmem.wrPerTurnAround::52-55              67      0.11%     98.80% # Writes before turning the bus around for reads
system.physmem.wrPerTurnAround::56-59              37      0.06%     98.86% # Writes before turning the bus around for reads
system.physmem.wrPerTurnAround::60-63              44      0.07%     98.93% # Writes before turning the bus around for reads
system.physmem.wrPerTurnAround::64-67             253      0.42%     99.35% # Writes before turning the bus around for reads
system.physmem.wrPerTurnAround::68-71              30      0.05%     99.40% # Writes before turning the bus around for reads
system.physmem.wrPerTurnAround::72-75              37      0.06%     99.46% # Writes before turning the bus around for reads
system.physmem.wrPerTurnAround::76-79             108      0.18%     99.64% # Writes before turning the bus around for reads
system.physmem.wrPerTurnAround::80-83             152      0.25%     99.89% # Writes before turning the bus around for reads
system.physmem.wrPerTurnAround::84-87               5      0.01%     99.90% # Writes before turning the bus around for reads
system.physmem.wrPerTurnAround::88-91               3      0.00%     99.91% # Writes before turning the bus around for reads
system.physmem.wrPerTurnAround::92-95               2      0.00%     99.91% # Writes before turning the bus around for reads
system.physmem.wrPerTurnAround::100-103             2      0.00%     99.91% # Writes before turning the bus around for reads
system.physmem.wrPerTurnAround::104-107             1      0.00%     99.91% # Writes before turning the bus around for reads
system.physmem.wrPerTurnAround::108-111             3      0.00%     99.92% # Writes before turning the bus around for reads
system.physmem.wrPerTurnAround::116-119             2      0.00%     99.92% # Writes before turning the bus around for reads
system.physmem.wrPerTurnAround::124-127             1      0.00%     99.92% # Writes before turning the bus around for reads
system.physmem.wrPerTurnAround::128-131            16      0.03%     99.95% # Writes before turning the bus around for reads
system.physmem.wrPerTurnAround::132-135             2      0.00%     99.95% # Writes before turning the bus around for reads
system.physmem.wrPerTurnAround::136-139             3      0.00%     99.96% # Writes before turning the bus around for reads
system.physmem.wrPerTurnAround::140-143             2      0.00%     99.96% # Writes before turning the bus around for reads
system.physmem.wrPerTurnAround::144-147            13      0.02%     99.98% # Writes before turning the bus around for reads
system.physmem.wrPerTurnAround::152-155             1      0.00%     99.99% # Writes before turning the bus around for reads
system.physmem.wrPerTurnAround::160-163             2      0.00%     99.99% # Writes before turning the bus around for reads
system.physmem.wrPerTurnAround::176-179             4      0.01%    100.00% # Writes before turning the bus around for reads
system.physmem.wrPerTurnAround::188-191             1      0.00%    100.00% # Writes before turning the bus around for reads
system.physmem.wrPerTurnAround::200-203             1      0.00%    100.00% # Writes before turning the bus around for reads
system.physmem.wrPerTurnAround::232-235             1      0.00%    100.00% # Writes before turning the bus around for reads
system.physmem.wrPerTurnAround::total           60429                       # Writes before turning the bus around for reads
system.physmem.totQLat                    28489428593                       # Total ticks spent queuing
system.physmem.totMemAccLat               53240028593                       # Total ticks spent from burst creation until serviced by the DRAM
system.physmem.totBusLat                   6600160000                       # Total ticks spent in databus transfers
system.physmem.avgQLat                       21582.38                       # Average queueing delay per DRAM burst
system.physmem.avgBusLat                      5000.00                       # Average bus latency per DRAM burst
system.physmem.avgMemAccLat                  40332.38                       # Average memory access latency per DRAM burst
system.physmem.avgRdBW                           1.77                       # Average DRAM read bandwidth in MiByte/s
system.physmem.avgWrBW                           1.45                       # Average achieved write bandwidth in MiByte/s
system.physmem.avgRdBWSys                        1.72                       # Average system read bandwidth in MiByte/s
system.physmem.avgWrBWSys                        1.45                       # Average system write bandwidth in MiByte/s
system.physmem.peakBW                        12800.00                       # Theoretical peak bandwidth in MiByte/s
system.physmem.busUtil                           0.03                       # Data bus utilization in percentage
system.physmem.busUtilRead                       0.01                       # Data bus utilization in percentage for reads
system.physmem.busUtilWrite                      0.01                       # Data bus utilization in percentage for writes
system.physmem.avgRdQLen                         1.17                       # Average read queue length when enqueuing
system.physmem.avgWrQLen                        26.12                       # Average write queue length when enqueuing
system.physmem.readRowHits                    1056858                       # Number of row buffer hits during reads
system.physmem.writeRowHits                    494645                       # Number of row buffer hits during writes
system.physmem.readRowHitRate                   80.06                       # Row buffer hit rate for reads
system.physmem.writeRowHitRate                  45.73                       # Row buffer hit rate for writes
system.physmem.avgGap                     19797005.68                       # Average gap between requests
system.physmem.pageHitRate                      64.60                       # Row buffer hit rate, read and write combined
system.physmem_0.actEnergy                 3250149840                       # Energy for activate commands per rank (pJ)
system.physmem_0.preEnergy                 1773395250                       # Energy for precharge commands per rank (pJ)
system.physmem_0.readEnergy                5076832800                       # Energy for read commands per rank (pJ)
system.physmem_0.writeEnergy               3525340320                       # Energy for write commands per rank (pJ)
system.physmem_0.refreshEnergy           3109158352560                       # Energy for refresh commands per rank (pJ)
system.physmem_0.actBackEnergy           1224482966955                       # Energy for active background per rank (pJ)
system.physmem_0.preBackEnergy           27487341349500                       # Energy for precharge background per rank (pJ)
system.physmem_0.totalEnergy             31834608387225                       # Total energy per rank (pJ)
system.physmem_0.averagePower              668.760359                       # Core power per rank (mW)
system.physmem_0.memoryStateTime::IDLE   45727050942416                       # Time in different power states
system.physmem_0.memoryStateTime::REF    1589549260000                       # Time in different power states
system.physmem_0.memoryStateTime::PRE_PDN            0                       # Time in different power states
system.physmem_0.memoryStateTime::ACT    285815210084                       # Time in different power states
system.physmem_0.memoryStateTime::ACT_PDN            0                       # Time in different power states
system.physmem_1.actEnergy                 3177619200                       # Energy for activate commands per rank (pJ)
system.physmem_1.preEnergy                 1733820000                       # Energy for precharge commands per rank (pJ)
system.physmem_1.readEnergy                5219370000                       # Energy for read commands per rank (pJ)
system.physmem_1.writeEnergy               3484121040                       # Energy for write commands per rank (pJ)
system.physmem_1.refreshEnergy           3109158352560                       # Energy for refresh commands per rank (pJ)
system.physmem_1.actBackEnergy           1221031665405                       # Energy for active background per rank (pJ)
system.physmem_1.preBackEnergy           27490368798750                       # Energy for precharge background per rank (pJ)
system.physmem_1.totalEnergy             31834173746955                       # Total energy per rank (pJ)
system.physmem_1.averagePower              668.751229                       # Core power per rank (mW)
system.physmem_1.memoryStateTime::IDLE   45732072121963                       # Time in different power states
system.physmem_1.memoryStateTime::REF    1589549260000                       # Time in different power states
system.physmem_1.memoryStateTime::PRE_PDN            0                       # Time in different power states
system.physmem_1.memoryStateTime::ACT    280793976787                       # Time in different power states
system.physmem_1.memoryStateTime::ACT_PDN            0                       # Time in different power states
system.realview.nvmem.bytes_read::cpu0.inst           96                       # Number of bytes read from this memory
system.realview.nvmem.bytes_read::cpu0.data           36                       # Number of bytes read from this memory
system.realview.nvmem.bytes_read::cpu1.inst           64                       # Number of bytes read from this memory
system.realview.nvmem.bytes_read::cpu1.data            8                       # Number of bytes read from this memory
system.realview.nvmem.bytes_read::total           204                       # Number of bytes read from this memory
system.realview.nvmem.bytes_inst_read::cpu0.inst           96                       # Number of instructions bytes read from this memory
system.realview.nvmem.bytes_inst_read::cpu1.inst           64                       # Number of instructions bytes read from this memory
system.realview.nvmem.bytes_inst_read::total          160                       # Number of instructions bytes read from this memory
system.realview.nvmem.num_reads::cpu0.inst           24                       # Number of read requests responded to by this memory
system.realview.nvmem.num_reads::cpu0.data            5                       # Number of read requests responded to by this memory
system.realview.nvmem.num_reads::cpu1.inst           16                       # Number of read requests responded to by this memory
system.realview.nvmem.num_reads::cpu1.data            1                       # Number of read requests responded to by this memory
system.realview.nvmem.num_reads::total             46                       # Number of read requests responded to by this memory
system.realview.nvmem.bw_read::cpu0.inst            2                       # Total read bandwidth from this memory (bytes/s)
system.realview.nvmem.bw_read::cpu0.data            1                       # Total read bandwidth from this memory (bytes/s)
system.realview.nvmem.bw_read::cpu1.inst            1                       # Total read bandwidth from this memory (bytes/s)
system.realview.nvmem.bw_read::cpu1.data            0                       # Total read bandwidth from this memory (bytes/s)
system.realview.nvmem.bw_read::total                4                       # Total read bandwidth from this memory (bytes/s)
system.realview.nvmem.bw_inst_read::cpu0.inst            2                       # Instruction read bandwidth from this memory (bytes/s)
system.realview.nvmem.bw_inst_read::cpu1.inst            1                       # Instruction read bandwidth from this memory (bytes/s)
system.realview.nvmem.bw_inst_read::total            3                       # Instruction read bandwidth from this memory (bytes/s)
system.realview.nvmem.bw_total::cpu0.inst            2                       # Total bandwidth to/from this memory (bytes/s)
system.realview.nvmem.bw_total::cpu0.data            1                       # Total bandwidth to/from this memory (bytes/s)
system.realview.nvmem.bw_total::cpu1.inst            1                       # Total bandwidth to/from this memory (bytes/s)
system.realview.nvmem.bw_total::cpu1.data            0                       # Total bandwidth to/from this memory (bytes/s)
system.realview.nvmem.bw_total::total               4                       # Total bandwidth to/from this memory (bytes/s)
system.cf0.dma_read_full_pages                    122                       # Number of full page size DMA reads (not PRD).
system.cf0.dma_read_bytes                      499712                       # Number of bytes transfered via DMA reads (not PRD).
system.cf0.dma_read_txs                           122                       # Number of DMA read transactions (not PRD).
system.cf0.dma_write_full_pages                  1671                       # Number of full page size DMA writes.
system.cf0.dma_write_bytes                    6846976                       # Number of bytes transfered via DMA writes.
system.cf0.dma_write_txs                         1674                       # Number of DMA write transactions.
system.cpu_clk_domain.clock                       500                       # Clock period in ticks
system.cpu0.dstage2_mmu.stage2_tlb.walker.walks            0                       # Table walker walks requested
system.cpu0.dstage2_mmu.stage2_tlb.walker.walkRequestOrigin_Requested::Data            0                       # Table walker requests started/completed, data/inst
system.cpu0.dstage2_mmu.stage2_tlb.walker.walkRequestOrigin_Requested::Inst            0                       # Table walker requests started/completed, data/inst
system.cpu0.dstage2_mmu.stage2_tlb.walker.walkRequestOrigin_Requested::total            0                       # Table walker requests started/completed, data/inst
system.cpu0.dstage2_mmu.stage2_tlb.walker.walkRequestOrigin_Completed::Data            0                       # Table walker requests started/completed, data/inst
system.cpu0.dstage2_mmu.stage2_tlb.walker.walkRequestOrigin_Completed::Inst            0                       # Table walker requests started/completed, data/inst
system.cpu0.dstage2_mmu.stage2_tlb.walker.walkRequestOrigin_Completed::total            0                       # Table walker requests started/completed, data/inst
system.cpu0.dstage2_mmu.stage2_tlb.walker.walkRequestOrigin::total            0                       # Table walker requests started/completed, data/inst
system.cpu0.dstage2_mmu.stage2_tlb.inst_hits            0                       # ITB inst hits
system.cpu0.dstage2_mmu.stage2_tlb.inst_misses            0                       # ITB inst misses
system.cpu0.dstage2_mmu.stage2_tlb.read_hits            0                       # DTB read hits
system.cpu0.dstage2_mmu.stage2_tlb.read_misses            0                       # DTB read misses
system.cpu0.dstage2_mmu.stage2_tlb.write_hits            0                       # DTB write hits
system.cpu0.dstage2_mmu.stage2_tlb.write_misses            0                       # DTB write misses
system.cpu0.dstage2_mmu.stage2_tlb.flush_tlb            0                       # Number of times complete TLB was flushed
system.cpu0.dstage2_mmu.stage2_tlb.flush_tlb_mva            0                       # Number of times TLB was flushed by MVA
system.cpu0.dstage2_mmu.stage2_tlb.flush_tlb_mva_asid            0                       # Number of times TLB was flushed by MVA & ASID
system.cpu0.dstage2_mmu.stage2_tlb.flush_tlb_asid            0                       # Number of times TLB was flushed by ASID
system.cpu0.dstage2_mmu.stage2_tlb.flush_entries            0                       # Number of entries that have been flushed from TLB
system.cpu0.dstage2_mmu.stage2_tlb.align_faults            0                       # Number of TLB faults due to alignment restrictions
system.cpu0.dstage2_mmu.stage2_tlb.prefetch_faults            0                       # Number of TLB faults due to prefetch
system.cpu0.dstage2_mmu.stage2_tlb.domain_faults            0                       # Number of TLB faults due to domain restrictions
system.cpu0.dstage2_mmu.stage2_tlb.perms_faults            0                       # Number of TLB faults due to permissions restrictions
system.cpu0.dstage2_mmu.stage2_tlb.read_accesses            0                       # DTB read accesses
system.cpu0.dstage2_mmu.stage2_tlb.write_accesses            0                       # DTB write accesses
system.cpu0.dstage2_mmu.stage2_tlb.inst_accesses            0                       # ITB inst accesses
system.cpu0.dstage2_mmu.stage2_tlb.hits             0                       # DTB hits
system.cpu0.dstage2_mmu.stage2_tlb.misses            0                       # DTB misses
system.cpu0.dstage2_mmu.stage2_tlb.accesses            0                       # DTB accesses
system.cpu0.dtb.walker.walks                   112758                       # Table walker walks requested
system.cpu0.dtb.walker.walksLong               112758                       # Table walker walks initiated with long descriptors
system.cpu0.dtb.walker.walksLongTerminationLevel::Level2        10038                       # Level at which table walker walks with long descriptors terminate
system.cpu0.dtb.walker.walksLongTerminationLevel::Level3        87373                       # Level at which table walker walks with long descriptors terminate
system.cpu0.dtb.walker.walksSquashedBefore           24                       # Table walks squashed before starting
system.cpu0.dtb.walker.walkWaitTime::samples       112734                       # Table walker wait (enqueue to first request) latency
system.cpu0.dtb.walker.walkWaitTime::mean     0.230631                       # Table walker wait (enqueue to first request) latency
system.cpu0.dtb.walker.walkWaitTime::stdev    77.436531                       # Table walker wait (enqueue to first request) latency
system.cpu0.dtb.walker.walkWaitTime::0-2047       112733    100.00%    100.00% # Table walker wait (enqueue to first request) latency
system.cpu0.dtb.walker.walkWaitTime::24576-26623            1      0.00%    100.00% # Table walker wait (enqueue to first request) latency
system.cpu0.dtb.walker.walkWaitTime::total       112734                       # Table walker wait (enqueue to first request) latency
system.cpu0.dtb.walker.walkCompletionTime::samples        97435                       # Table walker service (enqueue to completion) latency
system.cpu0.dtb.walker.walkCompletionTime::mean 23281.346539                       # Table walker service (enqueue to completion) latency
system.cpu0.dtb.walker.walkCompletionTime::gmean 21381.718359                       # Table walker service (enqueue to completion) latency
system.cpu0.dtb.walker.walkCompletionTime::stdev 19258.937396                       # Table walker service (enqueue to completion) latency
system.cpu0.dtb.walker.walkCompletionTime::0-65535        96246     98.78%     98.78% # Table walker service (enqueue to completion) latency
system.cpu0.dtb.walker.walkCompletionTime::65536-131071          178      0.18%     98.96% # Table walker service (enqueue to completion) latency
system.cpu0.dtb.walker.walkCompletionTime::131072-196607          868      0.89%     99.85% # Table walker service (enqueue to completion) latency
system.cpu0.dtb.walker.walkCompletionTime::196608-262143           20      0.02%     99.87% # Table walker service (enqueue to completion) latency
system.cpu0.dtb.walker.walkCompletionTime::262144-327679           55      0.06%     99.93% # Table walker service (enqueue to completion) latency
system.cpu0.dtb.walker.walkCompletionTime::327680-393215           17      0.02%     99.95% # Table walker service (enqueue to completion) latency
system.cpu0.dtb.walker.walkCompletionTime::393216-458751           37      0.04%     99.99% # Table walker service (enqueue to completion) latency
system.cpu0.dtb.walker.walkCompletionTime::458752-524287            8      0.01%     99.99% # Table walker service (enqueue to completion) latency
system.cpu0.dtb.walker.walkCompletionTime::524288-589823            4      0.00%    100.00% # Table walker service (enqueue to completion) latency
system.cpu0.dtb.walker.walkCompletionTime::655360-720895            1      0.00%    100.00% # Table walker service (enqueue to completion) latency
system.cpu0.dtb.walker.walkCompletionTime::786432-851967            1      0.00%    100.00% # Table walker service (enqueue to completion) latency
system.cpu0.dtb.walker.walkCompletionTime::total        97435                       # Table walker service (enqueue to completion) latency
system.cpu0.dtb.walker.walksPending::samples   8883013024                       # Table walker pending requests distribution
system.cpu0.dtb.walker.walksPending::mean     0.766632                       # Table walker pending requests distribution
system.cpu0.dtb.walker.walksPending::stdev     0.422974                       # Table walker pending requests distribution
system.cpu0.dtb.walker.walksPending::0     2073007704     23.34%     23.34% # Table walker pending requests distribution
system.cpu0.dtb.walker.walksPending::1     6810005320     76.66%    100.00% # Table walker pending requests distribution
system.cpu0.dtb.walker.walksPending::total   8883013024                       # Table walker pending requests distribution
system.cpu0.dtb.walker.walkPageSizes::4K        87373     89.70%     89.70% # Table walker page sizes translated
system.cpu0.dtb.walker.walkPageSizes::2M        10038     10.30%    100.00% # Table walker page sizes translated
system.cpu0.dtb.walker.walkPageSizes::total        97411                       # Table walker page sizes translated
system.cpu0.dtb.walker.walkRequestOrigin_Requested::Data       112758                       # Table walker requests started/completed, data/inst
system.cpu0.dtb.walker.walkRequestOrigin_Requested::Inst            0                       # Table walker requests started/completed, data/inst
system.cpu0.dtb.walker.walkRequestOrigin_Requested::total       112758                       # Table walker requests started/completed, data/inst
system.cpu0.dtb.walker.walkRequestOrigin_Completed::Data        97411                       # Table walker requests started/completed, data/inst
system.cpu0.dtb.walker.walkRequestOrigin_Completed::Inst            0                       # Table walker requests started/completed, data/inst
system.cpu0.dtb.walker.walkRequestOrigin_Completed::total        97411                       # Table walker requests started/completed, data/inst
system.cpu0.dtb.walker.walkRequestOrigin::total       210169                       # Table walker requests started/completed, data/inst
system.cpu0.dtb.inst_hits                           0                       # ITB inst hits
system.cpu0.dtb.inst_misses                         0                       # ITB inst misses
system.cpu0.dtb.read_hits                    88968055                       # DTB read hits
system.cpu0.dtb.read_misses                     85634                       # DTB read misses
system.cpu0.dtb.write_hits                   80360369                       # DTB write hits
system.cpu0.dtb.write_misses                    27124                       # DTB write misses
system.cpu0.dtb.flush_tlb                          14                       # Number of times complete TLB was flushed
system.cpu0.dtb.flush_tlb_mva                       0                       # Number of times TLB was flushed by MVA
system.cpu0.dtb.flush_tlb_mva_asid              39919                       # Number of times TLB was flushed by MVA & ASID
system.cpu0.dtb.flush_tlb_asid                   1034                       # Number of times TLB was flushed by ASID
system.cpu0.dtb.flush_entries                   39097                       # Number of entries that have been flushed from TLB
system.cpu0.dtb.align_faults                        0                       # Number of TLB faults due to alignment restrictions
system.cpu0.dtb.prefetch_faults                  3879                       # Number of TLB faults due to prefetch
system.cpu0.dtb.domain_faults                       0                       # Number of TLB faults due to domain restrictions
system.cpu0.dtb.perms_faults                    10141                       # Number of TLB faults due to permissions restrictions
system.cpu0.dtb.read_accesses                89053689                       # DTB read accesses
system.cpu0.dtb.write_accesses               80387493                       # DTB write accesses
system.cpu0.dtb.inst_accesses                       0                       # ITB inst accesses
system.cpu0.dtb.hits                        169328424                       # DTB hits
system.cpu0.dtb.misses                         112758                       # DTB misses
system.cpu0.dtb.accesses                    169441182                       # DTB accesses
system.cpu0.istage2_mmu.stage2_tlb.walker.walks            0                       # Table walker walks requested
system.cpu0.istage2_mmu.stage2_tlb.walker.walkRequestOrigin_Requested::Data            0                       # Table walker requests started/completed, data/inst
system.cpu0.istage2_mmu.stage2_tlb.walker.walkRequestOrigin_Requested::Inst            0                       # Table walker requests started/completed, data/inst
system.cpu0.istage2_mmu.stage2_tlb.walker.walkRequestOrigin_Requested::total            0                       # Table walker requests started/completed, data/inst
system.cpu0.istage2_mmu.stage2_tlb.walker.walkRequestOrigin_Completed::Data            0                       # Table walker requests started/completed, data/inst
system.cpu0.istage2_mmu.stage2_tlb.walker.walkRequestOrigin_Completed::Inst            0                       # Table walker requests started/completed, data/inst
system.cpu0.istage2_mmu.stage2_tlb.walker.walkRequestOrigin_Completed::total            0                       # Table walker requests started/completed, data/inst
system.cpu0.istage2_mmu.stage2_tlb.walker.walkRequestOrigin::total            0                       # Table walker requests started/completed, data/inst
system.cpu0.istage2_mmu.stage2_tlb.inst_hits            0                       # ITB inst hits
system.cpu0.istage2_mmu.stage2_tlb.inst_misses            0                       # ITB inst misses
system.cpu0.istage2_mmu.stage2_tlb.read_hits            0                       # DTB read hits
system.cpu0.istage2_mmu.stage2_tlb.read_misses            0                       # DTB read misses
system.cpu0.istage2_mmu.stage2_tlb.write_hits            0                       # DTB write hits
system.cpu0.istage2_mmu.stage2_tlb.write_misses            0                       # DTB write misses
system.cpu0.istage2_mmu.stage2_tlb.flush_tlb            0                       # Number of times complete TLB was flushed
system.cpu0.istage2_mmu.stage2_tlb.flush_tlb_mva            0                       # Number of times TLB was flushed by MVA
system.cpu0.istage2_mmu.stage2_tlb.flush_tlb_mva_asid            0                       # Number of times TLB was flushed by MVA & ASID
system.cpu0.istage2_mmu.stage2_tlb.flush_tlb_asid            0                       # Number of times TLB was flushed by ASID
system.cpu0.istage2_mmu.stage2_tlb.flush_entries            0                       # Number of entries that have been flushed from TLB
system.cpu0.istage2_mmu.stage2_tlb.align_faults            0                       # Number of TLB faults due to alignment restrictions
system.cpu0.istage2_mmu.stage2_tlb.prefetch_faults            0                       # Number of TLB faults due to prefetch
system.cpu0.istage2_mmu.stage2_tlb.domain_faults            0                       # Number of TLB faults due to domain restrictions
system.cpu0.istage2_mmu.stage2_tlb.perms_faults            0                       # Number of TLB faults due to permissions restrictions
system.cpu0.istage2_mmu.stage2_tlb.read_accesses            0                       # DTB read accesses
system.cpu0.istage2_mmu.stage2_tlb.write_accesses            0                       # DTB write accesses
system.cpu0.istage2_mmu.stage2_tlb.inst_accesses            0                       # ITB inst accesses
system.cpu0.istage2_mmu.stage2_tlb.hits             0                       # DTB hits
system.cpu0.istage2_mmu.stage2_tlb.misses            0                       # DTB misses
system.cpu0.istage2_mmu.stage2_tlb.accesses            0                       # DTB accesses
system.cpu0.itb.walker.walks                    62308                       # Table walker walks requested
system.cpu0.itb.walker.walksLong                62308                       # Table walker walks initiated with long descriptors
system.cpu0.itb.walker.walksLongTerminationLevel::Level2          814                       # Level at which table walker walks with long descriptors terminate
system.cpu0.itb.walker.walksLongTerminationLevel::Level3        55869                       # Level at which table walker walks with long descriptors terminate
system.cpu0.itb.walker.walkWaitTime::samples        62308                       # Table walker wait (enqueue to first request) latency
system.cpu0.itb.walker.walkWaitTime::0          62308    100.00%    100.00% # Table walker wait (enqueue to first request) latency
system.cpu0.itb.walker.walkWaitTime::total        62308                       # Table walker wait (enqueue to first request) latency
system.cpu0.itb.walker.walkCompletionTime::samples        56683                       # Table walker service (enqueue to completion) latency
system.cpu0.itb.walker.walkCompletionTime::mean 26679.454157                       # Table walker service (enqueue to completion) latency
system.cpu0.itb.walker.walkCompletionTime::gmean 23625.111342                       # Table walker service (enqueue to completion) latency
system.cpu0.itb.walker.walkCompletionTime::stdev 26536.909948                       # Table walker service (enqueue to completion) latency
system.cpu0.itb.walker.walkCompletionTime::0-65535        55487     97.89%     97.89% # Table walker service (enqueue to completion) latency
system.cpu0.itb.walker.walkCompletionTime::65536-131071           42      0.07%     97.96% # Table walker service (enqueue to completion) latency
system.cpu0.itb.walker.walkCompletionTime::131072-196607          988      1.74%     99.71% # Table walker service (enqueue to completion) latency
system.cpu0.itb.walker.walkCompletionTime::196608-262143           26      0.05%     99.75% # Table walker service (enqueue to completion) latency
system.cpu0.itb.walker.walkCompletionTime::262144-327679           65      0.11%     99.87% # Table walker service (enqueue to completion) latency
system.cpu0.itb.walker.walkCompletionTime::327680-393215           13      0.02%     99.89% # Table walker service (enqueue to completion) latency
system.cpu0.itb.walker.walkCompletionTime::393216-458751           49      0.09%     99.98% # Table walker service (enqueue to completion) latency
system.cpu0.itb.walker.walkCompletionTime::458752-524287            5      0.01%     99.99% # Table walker service (enqueue to completion) latency
system.cpu0.itb.walker.walkCompletionTime::524288-589823            4      0.01%     99.99% # Table walker service (enqueue to completion) latency
system.cpu0.itb.walker.walkCompletionTime::655360-720895            4      0.01%    100.00% # Table walker service (enqueue to completion) latency
system.cpu0.itb.walker.walkCompletionTime::total        56683                       # Table walker service (enqueue to completion) latency
system.cpu0.itb.walker.walksPending::samples   1979242204                       # Table walker pending requests distribution
system.cpu0.itb.walker.walksPending::0     1979242204    100.00%    100.00% # Table walker pending requests distribution
system.cpu0.itb.walker.walksPending::total   1979242204                       # Table walker pending requests distribution
system.cpu0.itb.walker.walkPageSizes::4K        55869     98.56%     98.56% # Table walker page sizes translated
system.cpu0.itb.walker.walkPageSizes::2M          814      1.44%    100.00% # Table walker page sizes translated
system.cpu0.itb.walker.walkPageSizes::total        56683                       # Table walker page sizes translated
system.cpu0.itb.walker.walkRequestOrigin_Requested::Data            0                       # Table walker requests started/completed, data/inst
system.cpu0.itb.walker.walkRequestOrigin_Requested::Inst        62308                       # Table walker requests started/completed, data/inst
system.cpu0.itb.walker.walkRequestOrigin_Requested::total        62308                       # Table walker requests started/completed, data/inst
system.cpu0.itb.walker.walkRequestOrigin_Completed::Data            0                       # Table walker requests started/completed, data/inst
system.cpu0.itb.walker.walkRequestOrigin_Completed::Inst        56683                       # Table walker requests started/completed, data/inst
system.cpu0.itb.walker.walkRequestOrigin_Completed::total        56683                       # Table walker requests started/completed, data/inst
system.cpu0.itb.walker.walkRequestOrigin::total       118991                       # Table walker requests started/completed, data/inst
system.cpu0.itb.inst_hits                   472241024                       # ITB inst hits
system.cpu0.itb.inst_misses                     62308                       # ITB inst misses
system.cpu0.itb.read_hits                           0                       # DTB read hits
system.cpu0.itb.read_misses                         0                       # DTB read misses
system.cpu0.itb.write_hits                          0                       # DTB write hits
system.cpu0.itb.write_misses                        0                       # DTB write misses
system.cpu0.itb.flush_tlb                          14                       # Number of times complete TLB was flushed
system.cpu0.itb.flush_tlb_mva                       0                       # Number of times TLB was flushed by MVA
system.cpu0.itb.flush_tlb_mva_asid              39919                       # Number of times TLB was flushed by MVA & ASID
system.cpu0.itb.flush_tlb_asid                   1034                       # Number of times TLB was flushed by ASID
system.cpu0.itb.flush_entries                   28001                       # Number of entries that have been flushed from TLB
system.cpu0.itb.align_faults                        0                       # Number of TLB faults due to alignment restrictions
system.cpu0.itb.prefetch_faults                     0                       # Number of TLB faults due to prefetch
system.cpu0.itb.domain_faults                       0                       # Number of TLB faults due to domain restrictions
system.cpu0.itb.perms_faults                        0                       # Number of TLB faults due to permissions restrictions
system.cpu0.itb.read_accesses                       0                       # DTB read accesses
system.cpu0.itb.write_accesses                      0                       # DTB write accesses
system.cpu0.itb.inst_accesses               472303332                       # ITB inst accesses
system.cpu0.itb.hits                        472241024                       # DTB hits
system.cpu0.itb.misses                          62308                       # DTB misses
system.cpu0.itb.accesses                    472303332                       # DTB accesses
system.cpu0.numCycles                     95204836507                       # number of cpu cycles simulated
system.cpu0.numWorkItemsStarted                     0                       # number of work items this cpu started
system.cpu0.numWorkItemsCompleted                   0                       # number of work items this cpu completed
system.cpu0.kern.inst.arm                           0                       # number of arm instructions executed
system.cpu0.kern.inst.quiesce                    5131                       # number of quiesce instructions executed
system.cpu0.committedInsts                  471986732                       # Number of instructions committed
system.cpu0.committedOps                    554132163                       # Number of ops (including micro ops) committed
system.cpu0.num_int_alu_accesses            509304939                       # Number of integer alu accesses
system.cpu0.num_fp_alu_accesses                463756                       # Number of float alu accesses
system.cpu0.num_func_calls                   28209702                       # number of times a function call or return occured
system.cpu0.num_conditional_control_insts     71348449                       # number of instructions that are conditional controls
system.cpu0.num_int_insts                   509304939                       # number of integer instructions
system.cpu0.num_fp_insts                       463756                       # number of float instructions
system.cpu0.num_int_register_reads          736700300                       # number of times the integer registers were read
system.cpu0.num_int_register_writes         403898232                       # number of times the integer registers were written
system.cpu0.num_fp_register_reads              771652                       # number of times the floating registers were read
system.cpu0.num_fp_register_writes             344244                       # number of times the floating registers were written
system.cpu0.num_cc_register_reads           122509563                       # number of times the CC registers were read
system.cpu0.num_cc_register_writes          122079243                       # number of times the CC registers were written
system.cpu0.num_mem_refs                    169317654                       # number of memory refs
system.cpu0.num_load_insts                   88962856                       # Number of load instructions
system.cpu0.num_store_insts                  80354798                       # Number of store instructions
system.cpu0.num_idle_cycles              93934250531.242035                       # Number of idle cycles
system.cpu0.num_busy_cycles              1270585975.757973                       # Number of busy cycles
system.cpu0.not_idle_fraction                0.013346                       # Percentage of non-idle cycles
system.cpu0.idle_fraction                    0.986654                       # Percentage of idle cycles
system.cpu0.Branches                        105166310                       # Number of branches fetched
system.cpu0.op_class::No_OpClass                    0      0.00%      0.00% # Class of executed instruction
system.cpu0.op_class::IntAlu                383762588     69.22%     69.22% # Class of executed instruction
system.cpu0.op_class::IntMult                 1237276      0.22%     69.44% # Class of executed instruction
system.cpu0.op_class::IntDiv                    66509      0.01%     69.45% # Class of executed instruction
system.cpu0.op_class::FloatAdd                      0      0.00%     69.45% # Class of executed instruction
system.cpu0.op_class::FloatCmp                      0      0.00%     69.45% # Class of executed instruction
system.cpu0.op_class::FloatCvt                      0      0.00%     69.45% # Class of executed instruction
system.cpu0.op_class::FloatMult                     0      0.00%     69.45% # Class of executed instruction
system.cpu0.op_class::FloatDiv                      0      0.00%     69.45% # Class of executed instruction
system.cpu0.op_class::FloatSqrt                     0      0.00%     69.45% # Class of executed instruction
system.cpu0.op_class::SimdAdd                       0      0.00%     69.45% # Class of executed instruction
system.cpu0.op_class::SimdAddAcc                    0      0.00%     69.45% # Class of executed instruction
system.cpu0.op_class::SimdAlu                       0      0.00%     69.45% # Class of executed instruction
system.cpu0.op_class::SimdCmp                       0      0.00%     69.45% # Class of executed instruction
system.cpu0.op_class::SimdCvt                       0      0.00%     69.45% # Class of executed instruction
system.cpu0.op_class::SimdMisc                      0      0.00%     69.45% # Class of executed instruction
system.cpu0.op_class::SimdMult                      0      0.00%     69.45% # Class of executed instruction
system.cpu0.op_class::SimdMultAcc                   0      0.00%     69.45% # Class of executed instruction
system.cpu0.op_class::SimdShift                     0      0.00%     69.45% # Class of executed instruction
system.cpu0.op_class::SimdShiftAcc                  0      0.00%     69.45% # Class of executed instruction
system.cpu0.op_class::SimdSqrt                      0      0.00%     69.45% # Class of executed instruction
system.cpu0.op_class::SimdFloatAdd                  0      0.00%     69.45% # Class of executed instruction
system.cpu0.op_class::SimdFloatAlu                  0      0.00%     69.45% # Class of executed instruction
system.cpu0.op_class::SimdFloatCmp                  0      0.00%     69.45% # Class of executed instruction
system.cpu0.op_class::SimdFloatCvt                  0      0.00%     69.45% # Class of executed instruction
system.cpu0.op_class::SimdFloatDiv                  0      0.00%     69.45% # Class of executed instruction
system.cpu0.op_class::SimdFloatMisc             45552      0.01%     69.46% # Class of executed instruction
system.cpu0.op_class::SimdFloatMult                 0      0.00%     69.46% # Class of executed instruction
system.cpu0.op_class::SimdFloatMultAcc              0      0.00%     69.46% # Class of executed instruction
system.cpu0.op_class::SimdFloatSqrt                 0      0.00%     69.46% # Class of executed instruction
system.cpu0.op_class::MemRead                88962856     16.05%     85.51% # Class of executed instruction
system.cpu0.op_class::MemWrite               80354798     14.49%    100.00% # Class of executed instruction
system.cpu0.op_class::IprAccess                     0      0.00%    100.00% # Class of executed instruction
system.cpu0.op_class::InstPrefetch                  0      0.00%    100.00% # Class of executed instruction
system.cpu0.op_class::total                 554429579                       # Class of executed instruction
system.cpu0.dcache.tags.replacements          5824476                       # number of replacements
system.cpu0.dcache.tags.tagsinuse          506.611071                       # Cycle average of tags in use
system.cpu0.dcache.tags.total_refs          163267162                       # Total number of references to valid blocks.
system.cpu0.dcache.tags.sampled_refs          5824987                       # Sample count of references to valid blocks.
system.cpu0.dcache.tags.avg_refs            28.028760                       # Average number of references to valid blocks.
system.cpu0.dcache.tags.warmup_cycle       6293818000                       # Cycle when the warmup percentage was hit.
system.cpu0.dcache.tags.occ_blocks::cpu0.data   506.611071                       # Average occupied blocks per requestor
system.cpu0.dcache.tags.occ_percent::cpu0.data     0.989475                       # Average percentage of cache occupancy
system.cpu0.dcache.tags.occ_percent::total     0.989475                       # Average percentage of cache occupancy
system.cpu0.dcache.tags.occ_task_id_blocks::1024          511                       # Occupied blocks per task id
system.cpu0.dcache.tags.age_task_id_blocks_1024::0          136                       # Occupied blocks per task id
system.cpu0.dcache.tags.age_task_id_blocks_1024::1          340                       # Occupied blocks per task id
system.cpu0.dcache.tags.age_task_id_blocks_1024::2           35                       # Occupied blocks per task id
system.cpu0.dcache.tags.occ_task_id_percent::1024     0.998047                       # Percentage of cache occupancy per task id
system.cpu0.dcache.tags.tag_accesses        344508686                       # Number of tag accesses
system.cpu0.dcache.tags.data_accesses       344508686                       # Number of data accesses
system.cpu0.dcache.ReadReq_hits::cpu0.data     82887500                       # number of ReadReq hits
system.cpu0.dcache.ReadReq_hits::total       82887500                       # number of ReadReq hits
system.cpu0.dcache.WriteReq_hits::cpu0.data     75943802                       # number of WriteReq hits
system.cpu0.dcache.WriteReq_hits::total      75943802                       # number of WriteReq hits
system.cpu0.dcache.SoftPFReq_hits::cpu0.data       196404                       # number of SoftPFReq hits
system.cpu0.dcache.SoftPFReq_hits::total       196404                       # number of SoftPFReq hits
system.cpu0.dcache.WriteLineReq_hits::cpu0.data       140054                       # number of WriteLineReq hits
system.cpu0.dcache.WriteLineReq_hits::total       140054                       # number of WriteLineReq hits
system.cpu0.dcache.LoadLockedReq_hits::cpu0.data      1847526                       # number of LoadLockedReq hits
system.cpu0.dcache.LoadLockedReq_hits::total      1847526                       # number of LoadLockedReq hits
system.cpu0.dcache.StoreCondReq_hits::cpu0.data      1825483                       # number of StoreCondReq hits
system.cpu0.dcache.StoreCondReq_hits::total      1825483                       # number of StoreCondReq hits
system.cpu0.dcache.demand_hits::cpu0.data    158831302                       # number of demand (read+write) hits
system.cpu0.dcache.demand_hits::total       158831302                       # number of demand (read+write) hits
system.cpu0.dcache.overall_hits::cpu0.data    159027706                       # number of overall hits
system.cpu0.dcache.overall_hits::total      159027706                       # number of overall hits
system.cpu0.dcache.ReadReq_misses::cpu0.data      3189198                       # number of ReadReq misses
system.cpu0.dcache.ReadReq_misses::total      3189198                       # number of ReadReq misses
system.cpu0.dcache.WriteReq_misses::cpu0.data      1439126                       # number of WriteReq misses
system.cpu0.dcache.WriteReq_misses::total      1439126                       # number of WriteReq misses
system.cpu0.dcache.SoftPFReq_misses::cpu0.data       657536                       # number of SoftPFReq misses
system.cpu0.dcache.SoftPFReq_misses::total       657536                       # number of SoftPFReq misses
system.cpu0.dcache.WriteLineReq_misses::cpu0.data       792800                       # number of WriteLineReq misses
[...]
system.l2c.overall_avg_mshr_miss_latency::cpu1.data 123419.535342                       # average overall mshr miss latency
system.l2c.overall_avg_mshr_miss_latency::cpu1.l2cache.prefetcher 153135.988396                       # average overall mshr miss latency
system.l2c.overall_avg_mshr_miss_latency::total 131096.531077                       # average overall mshr miss latency
system.l2c.ReadReq_avg_mshr_uncacheable_latency::cpu0.inst 112568.602899                       # average ReadReq mshr uncacheable latency
system.l2c.ReadReq_avg_mshr_uncacheable_latency::cpu0.data 146409.886006                       # average ReadReq mshr uncacheable latency
system.l2c.ReadReq_avg_mshr_uncacheable_latency::cpu1.inst 107722.727273                       # average ReadReq mshr uncacheable latency
system.l2c.ReadReq_avg_mshr_uncacheable_latency::cpu1.data 155515.816633                       # average ReadReq mshr uncacheable latency
system.l2c.ReadReq_avg_mshr_uncacheable_latency::total 131303.061689                       # average ReadReq mshr uncacheable latency
system.l2c.WriteReq_avg_mshr_uncacheable_latency::cpu0.data 144246.646804                       # average WriteReq mshr uncacheable latency
system.l2c.WriteReq_avg_mshr_uncacheable_latency::cpu1.data 160019.263397                       # average WriteReq mshr uncacheable latency
system.l2c.WriteReq_avg_mshr_uncacheable_latency::total 153661.782662                       # average WriteReq mshr uncacheable latency
system.l2c.overall_avg_mshr_uncacheable_latency::cpu0.inst 112568.602899                       # average overall mshr uncacheable latency
system.l2c.overall_avg_mshr_uncacheable_latency::cpu0.data 145302.455709                       # average overall mshr uncacheable latency
system.l2c.overall_avg_mshr_uncacheable_latency::cpu1.inst 107722.727273                       # average overall mshr uncacheable latency
system.l2c.overall_avg_mshr_uncacheable_latency::cpu1.data 157727.976102                       # average overall mshr uncacheable latency
system.l2c.overall_avg_mshr_uncacheable_latency::total 138490.550103                       # average overall mshr uncacheable latency
system.l2c.no_allocate_misses                       0                       # Number of misses that were no-allocate
system.membus.trans_dist::ReadReq               82348                       # Transaction distribution
system.membus.trans_dist::ReadResp             741199                       # Transaction distribution
system.membus.trans_dist::WriteReq              39013                       # Transaction distribution
system.membus.trans_dist::WriteResp             39013                       # Transaction distribution
system.membus.trans_dist::WritebackDirty      1081398                       # Transaction distribution
system.membus.trans_dist::CleanEvict           196468                       # Transaction distribution
system.membus.trans_dist::UpgradeReq           401198                       # Transaction distribution
system.membus.trans_dist::SCUpgradeReq         306316                       # Transaction distribution
system.membus.trans_dist::UpgradeResp              16                       # Transaction distribution
system.membus.trans_dist::ReadExReq            643986                       # Transaction distribution
system.membus.trans_dist::ReadExResp           621414                       # Transaction distribution
system.membus.trans_dist::ReadSharedReq        658851                       # Transaction distribution
system.membus.trans_dist::InvalidateReq        106984                       # Transaction distribution
system.membus.pkt_count_system.l2c.mem_side::system.bridge.slave       122996                       # Packet count per connected master and slave (bytes)
system.membus.pkt_count_system.l2c.mem_side::system.realview.nvmem.port           92                       # Packet count per connected master and slave (bytes)
system.membus.pkt_count_system.l2c.mem_side::system.realview.gic.pio        28036                       # Packet count per connected master and slave (bytes)
system.membus.pkt_count_system.l2c.mem_side::system.physmem.port      4525576                       # Packet count per connected master and slave (bytes)
system.membus.pkt_count_system.l2c.mem_side::total      4676700                       # Packet count per connected master and slave (bytes)
system.membus.pkt_count_system.iocache.mem_side::system.physmem.port       238552                       # Packet count per connected master and slave (bytes)
system.membus.pkt_count_system.iocache.mem_side::total       238552                       # Packet count per connected master and slave (bytes)
system.membus.pkt_count::total                4915252                       # Packet count per connected master and slave (bytes)
system.membus.pkt_size_system.l2c.mem_side::system.bridge.slave       156011                       # Cumulative packet size per connected master and slave (bytes)
system.membus.pkt_size_system.l2c.mem_side::system.realview.nvmem.port          204                       # Cumulative packet size per connected master and slave (bytes)
system.membus.pkt_size_system.l2c.mem_side::system.realview.gic.pio        56072                       # Cumulative packet size per connected master and slave (bytes)
system.membus.pkt_size_system.l2c.mem_side::system.physmem.port    143876076                       # Cumulative packet size per connected master and slave (bytes)
system.membus.pkt_size_system.l2c.mem_side::total    144088363                       # Cumulative packet size per connected master and slave (bytes)
system.membus.pkt_size_system.iocache.mem_side::system.physmem.port      7276096                       # Cumulative packet size per connected master and slave (bytes)
system.membus.pkt_size_system.iocache.mem_side::total      7276096                       # Cumulative packet size per connected master and slave (bytes)
system.membus.pkt_size::total               151364459                       # Cumulative packet size per connected master and slave (bytes)
system.membus.snoops                           576558                       # Total snoops (count)
system.membus.snoop_fanout::samples           3516604                       # Request fanout histogram
system.membus.snoop_fanout::mean                    1                       # Request fanout histogram
system.membus.snoop_fanout::stdev                   0                       # Request fanout histogram
system.membus.snoop_fanout::underflows              0      0.00%      0.00% # Request fanout histogram
system.membus.snoop_fanout::0                       0      0.00%      0.00% # Request fanout histogram
system.membus.snoop_fanout::1                 3516604    100.00%    100.00% # Request fanout histogram
system.membus.snoop_fanout::2                       0      0.00%    100.00% # Request fanout histogram
system.membus.snoop_fanout::overflows               0      0.00%    100.00% # Request fanout histogram
system.membus.snoop_fanout::min_value               1                       # Request fanout histogram
system.membus.snoop_fanout::max_value               1                       # Request fanout histogram
system.membus.snoop_fanout::total             3516604                       # Request fanout histogram
system.membus.reqLayer0.occupancy           101595998                       # Layer occupancy (ticks)
system.membus.reqLayer0.utilization               0.0                       # Layer utilization (%)
system.membus.reqLayer1.occupancy               54500                       # Layer occupancy (ticks)
system.membus.reqLayer1.utilization               0.0                       # Layer utilization (%)
system.membus.reqLayer2.occupancy            23093498                       # Layer occupancy (ticks)
system.membus.reqLayer2.utilization               0.0                       # Layer utilization (%)
system.membus.reqLayer5.occupancy          7460114319                       # Layer occupancy (ticks)
system.membus.reqLayer5.utilization               0.0                       # Layer utilization (%)
system.membus.respLayer2.occupancy         6921315949                       # Layer occupancy (ticks)
system.membus.respLayer2.utilization              0.0                       # Layer utilization (%)
system.membus.respLayer3.occupancy           45614101                       # Layer occupancy (ticks)
system.membus.respLayer3.utilization              0.0                       # Layer utilization (%)
system.realview.dcc.osc_cpu.clock               16667                       # Clock period in ticks
system.realview.dcc.osc_ddr.clock               25000                       # Clock period in ticks
system.realview.dcc.osc_hsbm.clock              25000                       # Clock period in ticks
system.realview.dcc.osc_pxl.clock               42105                       # Clock period in ticks
system.realview.dcc.osc_smb.clock               20000                       # Clock period in ticks
system.realview.dcc.osc_sys.clock               16667                       # Clock period in ticks
system.realview.ethernet.txBytes                  966                       # Bytes Transmitted
system.realview.ethernet.txPackets                  3                       # Number of Packets Transmitted
system.realview.ethernet.txIpChecksums              0                       # Number of tx IP Checksums done by device
system.realview.ethernet.txTcpChecksums             0                       # Number of tx TCP Checksums done by device
system.realview.ethernet.txUdpChecksums             0                       # Number of tx UDP Checksums done by device
system.realview.ethernet.descDMAReads               0                       # Number of descriptors the device read w/ DMA
system.realview.ethernet.descDMAWrites              0                       # Number of descriptors the device wrote w/ DMA
system.realview.ethernet.descDmaReadBytes            0                       # number of descriptor bytes read w/ DMA
system.realview.ethernet.descDmaWriteBytes            0                       # number of descriptor bytes write w/ DMA
system.realview.ethernet.totBandwidth             162                       # Total Bandwidth (bits/s)
system.realview.ethernet.totPackets                 3                       # Total Packets
system.realview.ethernet.totBytes                 966                       # Total Bytes
system.realview.ethernet.totPPS                     0                       # Total Tranmission Rate (packets/s)
system.realview.ethernet.txBandwidth              162                       # Transmit Bandwidth (bits/s)
system.realview.ethernet.txPPS                      0                       # Packet Tranmission Rate (packets/s)
system.realview.ethernet.postedSwi                  0                       # number of software interrupts posted to CPU
system.realview.ethernet.coalescedSwi               0                       # average number of Swi's coalesced into each post
system.realview.ethernet.totalSwi                   0                       # total number of Swi written to ISR
system.realview.ethernet.postedRxIdle               0                       # number of rxIdle interrupts posted to CPU
system.realview.ethernet.coalescedRxIdle            0                       # average number of RxIdle's coalesced into each post
system.realview.ethernet.totalRxIdle                0                       # total number of RxIdle written to ISR
system.realview.ethernet.postedRxOk                 0                       # number of RxOk interrupts posted to CPU
system.realview.ethernet.coalescedRxOk              0                       # average number of RxOk's coalesced into each post
system.realview.ethernet.totalRxOk                  0                       # total number of RxOk written to ISR
system.realview.ethernet.postedRxDesc               0                       # number of RxDesc interrupts posted to CPU
system.realview.ethernet.coalescedRxDesc            0                       # average number of RxDesc's coalesced into each post
system.realview.ethernet.totalRxDesc                0                       # total number of RxDesc written to ISR
system.realview.ethernet.postedTxOk                 0                       # number of TxOk interrupts posted to CPU
system.realview.ethernet.coalescedTxOk              0                       # average number of TxOk's coalesced into each post
system.realview.ethernet.totalTxOk                  0                       # total number of TxOk written to ISR
system.realview.ethernet.postedTxIdle               0                       # number of TxIdle interrupts posted to CPU
system.realview.ethernet.coalescedTxIdle            0                       # average number of TxIdle's coalesced into each post
system.realview.ethernet.totalTxIdle                0                       # total number of TxIdle written to ISR
system.realview.ethernet.postedTxDesc               0                       # number of TxDesc interrupts posted to CPU
system.realview.ethernet.coalescedTxDesc            0                       # average number of TxDesc's coalesced into each post
system.realview.ethernet.totalTxDesc                0                       # total number of TxDesc written to ISR
system.realview.ethernet.postedRxOrn                0                       # number of RxOrn posted to CPU
system.realview.ethernet.coalescedRxOrn             0                       # average number of RxOrn's coalesced into each post
system.realview.ethernet.totalRxOrn                 0                       # total number of RxOrn written to ISR
system.realview.ethernet.coalescedTotal             0                       # average number of interrupts coalesced into each post
system.realview.ethernet.postedInterrupts           13                       # number of posts to CPU
system.realview.ethernet.droppedPackets             0                       # number of packets dropped
system.realview.mcc.osc_clcd.clock              42105                       # Clock period in ticks
system.realview.mcc.osc_mcc.clock               20000                       # Clock period in ticks
system.realview.mcc.osc_peripheral.clock        41667                       # Clock period in ticks
system.realview.mcc.osc_system_bus.clock        41667                       # Clock period in ticks
system.toL2Bus.snoop_filter.tot_requests     10579543                       # Total number of requests made to the snoop filter.
system.toL2Bus.snoop_filter.hit_single_requests      5766836                       # Number of requests hitting in the snoop filter with a single holder of the requested data.
system.toL2Bus.snoop_filter.hit_multi_requests      1724769                       # Number of requests hitting in the snoop filter with multiple (>1) holders of the requested data.
system.toL2Bus.snoop_filter.tot_snoops         116961                       # Total number of snoops made to the snoop filter.
system.toL2Bus.snoop_filter.hit_single_snoops       105875                       # Number of snoops hitting in the snoop filter with a single holder of the requested data.
system.toL2Bus.snoop_filter.hit_multi_snoops        11086                       # Number of snoops hitting in the snoop filter with multiple (>1) holders of the requested data.
system.toL2Bus.trans_dist::ReadReq              82350                       # Transaction distribution
system.toL2Bus.trans_dist::ReadResp           3947474                       # Transaction distribution
system.toL2Bus.trans_dist::WriteReq             39013                       # Transaction distribution
system.toL2Bus.trans_dist::WriteResp            39013                       # Transaction distribution
system.toL2Bus.trans_dist::WritebackDirty      3635231                       # Transaction distribution
system.toL2Bus.trans_dist::CleanEvict         2252852                       # Transaction distribution
system.toL2Bus.trans_dist::UpgradeReq          680846                       # Transaction distribution
system.toL2Bus.trans_dist::SCUpgradeReq        382953                       # Transaction distribution
system.toL2Bus.trans_dist::UpgradeResp        1063799                       # Transaction distribution
system.toL2Bus.trans_dist::SCUpgradeFailReq          141                       # Transaction distribution
system.toL2Bus.trans_dist::UpgradeFailResp          141                       # Transaction distribution
system.toL2Bus.trans_dist::ReadExReq          1092357                       # Transaction distribution
system.toL2Bus.trans_dist::ReadExResp         1092357                       # Transaction distribution
system.toL2Bus.trans_dist::ReadSharedReq      3872368                       # Transaction distribution
system.toL2Bus.trans_dist::InvalidateReq       106984                       # Transaction distribution
system.toL2Bus.pkt_count_system.cpu0.l2cache.mem_side::system.l2c.cpu_side      8825237                       # Packet count per connected master and slave (bytes)
system.toL2Bus.pkt_count_system.cpu1.l2cache.mem_side::system.l2c.cpu_side      6597118                       # Packet count per connected master and slave (bytes)
system.toL2Bus.pkt_count::total              15422355                       # Packet count per connected master and slave (bytes)
system.toL2Bus.pkt_size_system.cpu0.l2cache.mem_side::system.l2c.cpu_side    252378371                       # Cumulative packet size per connected master and slave (bytes)
system.toL2Bus.pkt_size_system.cpu1.l2cache.mem_side::system.l2c.cpu_side    173059496                       # Cumulative packet size per connected master and slave (bytes)
system.toL2Bus.pkt_size::total              425437867                       # Cumulative packet size per connected master and slave (bytes)
system.toL2Bus.snoops                         2867232                       # Total snoops (count)
system.toL2Bus.snoop_fanout::samples          7585274                       # Request fanout histogram
system.toL2Bus.snoop_fanout::mean            0.353752                       # Request fanout histogram
system.toL2Bus.snoop_fanout::stdev           0.481180                       # Request fanout histogram
system.toL2Bus.snoop_fanout::underflows             0      0.00%      0.00% # Request fanout histogram
system.toL2Bus.snoop_fanout::0                4913057     64.77%     64.77% # Request fanout histogram
system.toL2Bus.snoop_fanout::1                2661131     35.08%     99.85% # Request fanout histogram
system.toL2Bus.snoop_fanout::2                  11086      0.15%    100.00% # Request fanout histogram
system.toL2Bus.snoop_fanout::overflows              0      0.00%    100.00% # Request fanout histogram
system.toL2Bus.snoop_fanout::min_value              0                       # Request fanout histogram
system.toL2Bus.snoop_fanout::max_value              2                       # Request fanout histogram
system.toL2Bus.snoop_fanout::total            7585274                       # Request fanout histogram
system.toL2Bus.reqLayer0.occupancy         8312830316                       # Layer occupancy (ticks)
system.toL2Bus.reqLayer0.utilization              0.0                       # Layer utilization (%)
system.toL2Bus.snoopLayer0.occupancy          2630923                       # Layer occupancy (ticks)
system.toL2Bus.snoopLayer0.utilization            0.0                       # Layer utilization (%)
system.toL2Bus.respLayer0.occupancy        4557123754                       # Layer occupancy (ticks)
system.toL2Bus.respLayer0.utilization             0.0                       # Layer utilization (%)
system.toL2Bus.respLayer1.occupancy        3526163360                       # Layer occupancy (ticks)
system.toL2Bus.respLayer1.utilization             0.0                       # Layer utilization (%)

---------- End Simulation Statistics   ----------
