
---------- Begin Simulation Statistics ----------
sim_seconds                                 47.496387                       # Number of seconds simulated
sim_ticks                                47496386980500                       # Number of ticks simulated
final_tick                               47496386980500                       # Number of ticks from beginning of simulation (restored from checkpoints and never reset)
sim_freq                                 1000000000000                       # Frequency of simulated ticks
host_inst_rate                                 708538                       # Simulator instruction rate (inst/s)
host_op_rate                                   833484                       # Simulator op (including micro ops) rate (op/s)
host_tick_rate                            38555693115                       # Simulator tick rate (ticks/s)
host_mem_usage                                 757988                       # Number of bytes of host memory used
host_seconds                                  1231.89                       # Real time elapsed on the host
sim_insts                                   872840522                       # Number of instructions simulated
sim_ops                                    1026761155                       # Number of ops (including micro ops) simulated
system.voltage_domain.voltage                       1                       # Voltage in Volts
system.clk_domain.clock                          1000                       # Clock period in ticks
system.physmem.bytes_read::cpu0.dtb.walker        77248                       # Number of bytes read from this memory
system.physmem.bytes_read::cpu0.itb.walker        78464                       # Number of bytes read from this memory
system.physmem.bytes_read::cpu0.inst          2962612                       # Number of bytes read from this memory
system.physmem.bytes_read::cpu0.data         38823816                       # Number of bytes read from this memory
system.physmem.bytes_read::cpu0.l2cache.prefetcher     12701504                       # Number of bytes read from this memory
system.physmem.bytes_read::cpu1.dtb.walker       109824                       # Number of bytes read from this memory
system.physmem.bytes_read::cpu1.itb.walker       113728                       # Number of bytes read from this memory
system.physmem.bytes_read::cpu1.inst          2837560                       # Number of bytes read from this memory
system.physmem.bytes_read::cpu1.data         15245328                       # Number of bytes read from this memory
system.physmem.bytes_read::cpu1.l2cache.prefetcher     12552128                       # Number of bytes read from this memory
system.physmem.bytes_read::realview.ide        438080                       # Number of bytes read from this memory
system.physmem.bytes_read::total             85940292                       # Number of bytes read from this memory
system.physmem.bytes_inst_read::cpu0.inst      2962612                       # Number of instructions bytes read from this memory
system.physmem.bytes_inst_read::cpu1.inst      2837560                       # Number of instructions bytes read from this memory
system.physmem.bytes_inst_read::total         5800172                       # Number of instructions bytes read from this memory
system.physmem.bytes_written::writebacks     72817088                       # Number of bytes written to this memory
system.physmem.bytes_written::cpu0.data         20580                       # Number of bytes written to this memory
system.physmem.bytes_written::cpu1.data             4                       # Number of bytes written to this memory
system.physmem.bytes_written::total          72837672                       # Number of bytes written to this memory
system.physmem.num_reads::cpu0.dtb.walker         1207                       # Number of read requests responded to by this memory
system.physmem.num_reads::cpu0.itb.walker         1226                       # Number of read requests responded to by this memory
system.physmem.num_reads::cpu0.inst             86698                       # Number of read requests responded to by this memory
system.physmem.num_reads::cpu0.data            606635                       # Number of read requests responded to by this memory
system.physmem.num_reads::cpu0.l2cache.prefetcher       198461                       # Number of read requests responded to by this memory
system.physmem.num_reads::cpu1.dtb.walker         1716                       # Number of read requests responded to by this memory
system.physmem.num_reads::cpu1.itb.walker         1777                       # Number of read requests responded to by this memory
system.physmem.num_reads::cpu1.inst             44425                       # Number of read requests responded to by this memory
system.physmem.num_reads::cpu1.data            238221                       # Number of read requests responded to by this memory
system.physmem.num_reads::cpu1.l2cache.prefetcher       196127                       # Number of read requests responded to by this memory
system.physmem.num_reads::realview.ide           6845                       # Number of read requests responded to by this memory
system.physmem.num_reads::total               1383338                       # Number of read requests responded to by this memory
system.physmem.num_writes::writebacks         1137767                       # Number of write requests responded to by this memory
system.physmem.num_writes::cpu0.data             2573                       # Number of write requests responded to by this memory
system.physmem.num_writes::cpu1.data                1                       # Number of write requests responded to by this memory
system.physmem.num_writes::total              1140341                       # Number of write requests responded to by this memory
system.physmem.bw_read::cpu0.dtb.walker          1626                       # Total read bandwidth from this memory (bytes/s)
system.physmem.bw_read::cpu0.itb.walker          1652                       # Total read bandwidth from this memory (bytes/s)
system.physmem.bw_read::cpu0.inst               62376                       # Total read bandwidth from this memory (bytes/s)
system.physmem.bw_read::cpu0.data              817406                       # Total read bandwidth from this memory (bytes/s)
system.physmem.bw_read::cpu0.l2cache.prefetcher       267420                       # Total read bandwidth from this memory (bytes/s)
system.physmem.bw_read::cpu1.dtb.walker          2312                       # Total read bandwidth from this memory (bytes/s)
system.physmem.bw_read::cpu1.itb.walker          2394                       # Total read bandwidth from this memory (bytes/s)
system.physmem.bw_read::cpu1.inst               59743                       # Total read bandwidth from this memory (bytes/s)
system.physmem.bw_read::cpu1.data              320979                       # Total read bandwidth from this memory (bytes/s)
system.physmem.bw_read::cpu1.l2cache.prefetcher       264275                       # Total read bandwidth from this memory (bytes/s)
system.physmem.bw_read::realview.ide             9223                       # Total read bandwidth from this memory (bytes/s)
system.physmem.bw_read::total                 1809407                       # Total read bandwidth from this memory (bytes/s)
system.physmem.bw_inst_read::cpu0.inst          62376                       # Instruction read bandwidth from this memory (bytes/s)
system.physmem.bw_inst_read::cpu1.inst          59743                       # Instruction read bandwidth from this memory (bytes/s)
system.physmem.bw_inst_read::total             122118                       # Instruction read bandwidth from this memory (bytes/s)
system.physmem.bw_write::writebacks           1533108                       # Write bandwidth from this memory (bytes/s)
system.physmem.bw_write::cpu0.data                433                       # Write bandwidth from this memory (bytes/s)
system.physmem.bw_write::cpu1.data                  0                       # Write bandwidth from this memory (bytes/s)
system.physmem.bw_write::total                1533541                       # Write bandwidth from this memory (bytes/s)
system.physmem.bw_total::writebacks           1533108                       # Total bandwidth to/from this memory (bytes/s)
system.physmem.bw_total::cpu0.dtb.walker         1626                       # Total bandwidth to/from this memory (bytes/s)
system.physmem.bw_total::cpu0.itb.walker         1652                       # Total bandwidth to/from this memory (bytes/s)
system.physmem.bw_total::cpu0.inst              62376                       # Total bandwidth to/from this memory (bytes/s)
system.physmem.bw_total::cpu0.data             817839                       # Total bandwidth to/from this memory (bytes/s)
system.physmem.bw_total::cpu0.l2cache.prefetcher       267420                       # Total bandwidth to/from this memory (bytes/s)
system.physmem.bw_total::cpu1.dtb.walker         2312                       # Total bandwidth to/from this memory (bytes/s)
system.physmem.bw_total::cpu1.itb.walker         2394                       # Total bandwidth to/from this memory (bytes/s)
system.physmem.bw_total::cpu1.inst              59743                       # Total bandwidth to/from this memory (bytes/s)
system.physmem.bw_total::cpu1.data             320979                       # Total bandwidth to/from this memory (bytes/s)
system.physmem.bw_total::cpu1.l2cache.prefetcher       264275                       # Total bandwidth to/from this memory (bytes/s)
system.physmem.bw_total::realview.ide            9223                       # Total bandwidth to/from this memory (bytes/s)
system.physmem.bw_total::total                3342948                       # Total bandwidth to/from this memory (bytes/s)
system.physmem.readReqs                       1383338                       # Number of read requests accepted
system.physmem.writeReqs                      1140341                       # Number of write requests accepted
system.physmem.readBursts                     1383338                       # Number of DRAM read bursts, including those serviced by the write queue
system.physmem.writeBursts                    1140341                       # Number of DRAM write bursts, including those merged in the write queue
system.physmem.bytesReadDRAM                 88503808                       # Total number of bytes read from DRAM
system.physmem.bytesReadWrQ                     29824                       # Total number of bytes read from write queue
system.physmem.bytesWritten                  72836864                       # Total number of bytes written to DRAM
system.physmem.bytesReadSys                  85940292                       # Total read bytes from the system interface side
system.physmem.bytesWrittenSys               72837672                       # Total written bytes from the system interface side
system.physmem.servicedByWrQ                      466                       # Number of DRAM read bursts serviced by the write queue
system.physmem.mergedWrBursts                    2246                       # Number of DRAM write bursts merged with an existing one
system.physmem.neitherReadNorWriteReqs         218501                       # Number of requests that are neither read nor write
system.physmem.perBankRdBursts::0               80378                       # Per bank write bursts
system.physmem.perBankRdBursts::1               85683                       # Per bank write bursts
system.physmem.perBankRdBursts::2               84533                       # Per bank write bursts
system.physmem.perBankRdBursts::3               91641                       # Per bank write bursts
system.physmem.perBankRdBursts::4               87506                       # Per bank write bursts
system.physmem.perBankRdBursts::5               92565                       # Per bank write bursts
system.physmem.perBankRdBursts::6               85373                       # Per bank write bursts
system.physmem.perBankRdBursts::7               87361                       # Per bank write bursts
system.physmem.perBankRdBursts::8               80689                       # Per bank write bursts
system.physmem.perBankRdBursts::9              125890                       # Per bank write bursts
system.physmem.perBankRdBursts::10              79879                       # Per bank write bursts
system.physmem.perBankRdBursts::11              87722                       # Per bank write bursts
system.physmem.perBankRdBursts::12              73371                       # Per bank write bursts
system.physmem.perBankRdBursts::13              83748                       # Per bank write bursts
system.physmem.perBankRdBursts::14              77275                       # Per bank write bursts
system.physmem.perBankRdBursts::15              79258                       # Per bank write bursts
system.physmem.perBankWrBursts::0               66779                       # Per bank write bursts
system.physmem.perBankWrBursts::1               71701                       # Per bank write bursts
system.physmem.perBankWrBursts::2               72134                       # Per bank write bursts
system.physmem.perBankWrBursts::3               76164                       # Per bank write bursts
system.physmem.perBankWrBursts::4               73824                       # Per bank write bursts
system.physmem.perBankWrBursts::5               77776                       # Per bank write bursts
system.physmem.perBankWrBursts::6               71735                       # Per bank write bursts
system.physmem.perBankWrBursts::7               72120                       # Per bank write bursts
system.physmem.perBankWrBursts::8               69346                       # Per bank write bursts
system.physmem.perBankWrBursts::9               71851                       # Per bank write bursts
system.physmem.perBankWrBursts::10              68226                       # Per bank write bursts
system.physmem.perBankWrBursts::11              73306                       # Per bank write bursts
system.physmem.perBankWrBursts::12              64374                       # Per bank write bursts
system.physmem.perBankWrBursts::13              72179                       # Per bank write bursts
system.physmem.perBankWrBursts::14              67114                       # Per bank write bursts
system.physmem.perBankWrBursts::15              69447                       # Per bank write bursts
system.physmem.numRdRetry                           0                       # Number of times read queue was full causing retry
system.physmem.numWrRetry                          52                       # Number of times write queue was full causing retry
system.physmem.totGap                    47496383920000                       # Total gap between requests
system.physmem.readPktSize::0                       0                       # Read request sizes (log2)
system.physmem.readPktSize::1                       0                       # Read request sizes (log2)
system.physmem.readPktSize::2                   43195                       # Read request sizes (log2)
system.physmem.readPktSize::3                      25                       # Read request sizes (log2)
system.physmem.readPktSize::4                       5                       # Read request sizes (log2)
system.physmem.readPktSize::5                       0                       # Read request sizes (log2)
system.physmem.readPktSize::6                 1340113                       # Read request sizes (log2)
system.physmem.writePktSize::0                      0                       # Write request sizes (log2)
system.physmem.writePktSize::1                      0                       # Write request sizes (log2)
system.physmem.writePktSize::2                      2                       # Write request sizes (log2)
system.physmem.writePktSize::3                   2572                       # Write request sizes (log2)
system.physmem.writePktSize::4                      0                       # Write request sizes (log2)
system.physmem.writePktSize::5                      0                       # Write request sizes (log2)
system.physmem.writePktSize::6                1137767                       # Write request sizes (log2)
system.physmem.rdQLenPdf::0                   1131623                       # What read queue length does an incoming req see
system.physmem.rdQLenPdf::1                     75605                       # What read queue length does an incoming req see
system.physmem.rdQLenPdf::2                     35452                       # What read queue length does an incoming req see
system.physmem.rdQLenPdf::3                     30271                       # What read queue length does an incoming req see
system.physmem.rdQLenPdf::4                     26331                       # What read queue length does an incoming req see
system.physmem.rdQLenPdf::5                     23289                       # What read queue length does an incoming req see
system.physmem.rdQLenPdf::6                     20581                       # What read queue length does an incoming req see
system.physmem.rdQLenPdf::7                     17115                       # What read queue length does an incoming req see
system.physmem.rdQLenPdf::8                     14732                       # What read queue length does an incoming req see
system.physmem.rdQLenPdf::9                      3112                       # What read queue length does an incoming req see
system.physmem.rdQLenPdf::10                     1389                       # What read queue length does an incoming req see
system.physmem.rdQLenPdf::11                      848                       # What read queue length does an incoming req see
system.physmem.rdQLenPdf::12                      676                       # What read queue length does an incoming req see
system.physmem.rdQLenPdf::13                      510                       # What read queue length does an incoming req see
system.physmem.rdQLenPdf::14                      378                       # What read queue length does an incoming req see
system.physmem.rdQLenPdf::15                      327                       # What read queue length does an incoming req see
system.physmem.rdQLenPdf::16                      250                       # What read queue length does an incoming req see
system.physmem.rdQLenPdf::17                      202                       # What read queue length does an incoming req see
system.physmem.rdQLenPdf::18                      102                       # What read queue length does an incoming req see
system.physmem.rdQLenPdf::19                       68                       # What read queue length does an incoming req see
system.physmem.rdQLenPdf::20                        9                       # What read queue length does an incoming req see
system.physmem.rdQLenPdf::21                        2                       # What read queue length does an incoming req see
system.physmem.rdQLenPdf::22                        0                       # What read queue length does an incoming req see
system.physmem.rdQLenPdf::23                        0                       # What read queue length does an incoming req see
system.physmem.rdQLenPdf::24                        0                       # What read queue length does an incoming req see
system.physmem.rdQLenPdf::25                        0                       # What read queue length does an incoming req see
system.physmem.rdQLenPdf::26                        0                       # What read queue length does an incoming req see
system.physmem.rdQLenPdf::27                        0                       # What read queue length does an incoming req see
system.physmem.rdQLenPdf::28                        0                       # What read queue length does an incoming req see
system.physmem.rdQLenPdf::29                        0                       # What read queue length does an incoming req see
system.physmem.rdQLenPdf::30                        0                       # What read queue length does an incoming req see
system.physmem.rdQLenPdf::31                        0                       # What read queue length does an incoming req see
system.physmem.wrQLenPdf::0                         1                       # What write queue length does an incoming req see
system.physmem.wrQLenPdf::1                         1                       # What write queue length does an incoming req see
system.physmem.wrQLenPdf::2                         1                       # What write queue length does an incoming req see
system.physmem.wrQLenPdf::3                         1                       # What write queue length does an incoming req see
system.physmem.wrQLenPdf::4                         1                       # What write queue length does an incoming req see
system.physmem.wrQLenPdf::5                         1                       # What write queue length does an incoming req see
system.physmem.wrQLenPdf::6                         1                       # What write queue length does an incoming req see
system.physmem.wrQLenPdf::7                         1                       # What write queue length does an incoming req see
system.physmem.wrQLenPdf::8                         1                       # What write queue length does an incoming req see
system.physmem.wrQLenPdf::9                         1                       # What write queue length does an incoming req see
system.physmem.wrQLenPdf::10                        1                       # What write queue length does an incoming req see
system.physmem.wrQLenPdf::11                        1                       # What write queue length does an incoming req see
system.physmem.wrQLenPdf::12                        1                       # What write queue length does an incoming req see
system.physmem.wrQLenPdf::13                        1                       # What write queue length does an incoming req see
system.physmem.wrQLenPdf::14                        1                       # What write queue length does an incoming req see
system.physmem.wrQLenPdf::15                    16550                       # What write queue length does an incoming req see
system.physmem.wrQLenPdf::16                    19449                       # What write queue length does an incoming req see
system.physmem.wrQLenPdf::17                    48905                       # What write queue length does an incoming req see
system.physmem.wrQLenPdf::18                    57076                       # What write queue length does an incoming req see
system.physmem.wrQLenPdf::19                    61582                       # What write queue length does an incoming req see
system.physmem.wrQLenPdf::20                    64173                       # What write queue length does an incoming req see
system.physmem.wrQLenPdf::21                    65524                       # What write queue length does an incoming req see
system.physmem.wrQLenPdf::22                    69411                       # What write queue length does an incoming req see
system.physmem.wrQLenPdf::23                    70341                       # What write queue length does an incoming req see
system.physmem.wrQLenPdf::24                    73639                       # What write queue length does an incoming req see
system.physmem.wrQLenPdf::25                    73241                       # What write queue length does an incoming req see
system.physmem.wrQLenPdf::26                    74463                       # What write queue length does an incoming req see
system.physmem.wrQLenPdf::27                    72846                       # What write queue length does an incoming req see
system.physmem.wrQLenPdf::28                    73821                       # What write queue length does an incoming req see
system.physmem.wrQLenPdf::29                    77361                       # What write queue length does an incoming req see
system.physmem.wrQLenPdf::30                    71631                       # What write queue length does an incoming req see
system.physmem.wrQLenPdf::31                    68870                       # What write queue length does an incoming req see
system.physmem.wrQLenPdf::32                    66897                       # What write queue length does an incoming req see
system.physmem.wrQLenPdf::33                     1594                       # What write queue length does an incoming req see
system.physmem.wrQLenPdf::34                     1048                       # What write queue length does an incoming req see
system.physmem.wrQLenPdf::35                      987                       # What write queue length does an incoming req see
system.physmem.wrQLenPdf::36                      658                       # What write queue length does an incoming req see
system.physmem.wrQLenPdf::37                      577                       # What write queue length does an incoming req see
system.physmem.wrQLenPdf::38                      491                       # What write queue length does an incoming req see
system.physmem.wrQLenPdf::39                      435                       # What write queue length does an incoming req see
system.physmem.wrQLenPdf::40                      478                       # What write queue length does an incoming req see
system.physmem.wrQLenPdf::41                      422                       # What write queue length does an incoming req see
system.physmem.wrQLenPdf::42                      365                       # What write queue length does an incoming req see
system.physmem.wrQLenPdf::43                      365                       # What write queue length does an incoming req see
system.physmem.wrQLenPdf::44                      326                       # What write queue length does an incoming req see
system.physmem.wrQLenPdf::45                      323                       # What write queue length does an incoming req see
system.physmem.wrQLenPdf::46                      322                       # What write queue length does an incoming req see
system.physmem.wrQLenPdf::47                      321                       # What write queue length does an incoming req see
system.physmem.wrQLenPdf::48                      287                       # What write queue length does an incoming req see
system.physmem.wrQLenPdf::49                      307                       # What write queue length does an incoming req see
system.physmem.wrQLenPdf::50                      301                       # What write queue length does an incoming req see
system.physmem.wrQLenPdf::51                      289                       # What write queue length does an incoming req see
system.physmem.wrQLenPdf::52                      293                       # What write queue length does an incoming req see
system.physmem.wrQLenPdf::53                      256                       # What write queue length does an incoming req see
system.physmem.wrQLenPdf::54                      244                       # What write queue length does an incoming req see
system.physmem.wrQLenPdf::55                      254                       # What write queue length does an incoming req see
system.physmem.wrQLenPdf::56                      243                       # What write queue length does an incoming req see
system.physmem.wrQLenPdf::57                      199                       # What write queue length does an incoming req see
system.physmem.wrQLenPdf::58                      178                       # What write queue length does an incoming req see
system.physmem.wrQLenPdf::59                      156                       # What write queue length does an incoming req see
system.physmem.wrQLenPdf::60                      135                       # What write queue length does an incoming req see
system.physmem.wrQLenPdf::61                      157                       # What write queue length does an incoming req see
system.physmem.wrQLenPdf::62                      131                       # What write queue length does an incoming req see
system.physmem.wrQLenPdf::63                      158                       # What write queue length does an incoming req see
system.physmem.bytesPerActivate::samples       866706                       # Bytes accessed per row activation
system.physmem.bytesPerActivate::mean      186.153496                       # Bytes accessed per row activation
system.physmem.bytesPerActivate::gmean     114.409994                       # Bytes accessed per row activation
system.physmem.bytesPerActivate::stdev     244.608227                       # Bytes accessed per row activation
system.physmem.bytesPerActivate::0-127         521785     60.20%     60.20% # Bytes accessed per row activation
system.physmem.bytesPerActivate::128-255       170596     19.68%     79.89% # Bytes accessed per row activation
system.physmem.bytesPerActivate::256-383        55940      6.45%     86.34% # Bytes accessed per row activation
system.physmem.bytesPerActivate::384-511        28866      3.33%     89.67% # Bytes accessed per row activation
system.physmem.bytesPerActivate::512-639        19331      2.23%     91.90% # Bytes accessed per row activation
system.physmem.bytesPerActivate::640-767        11894      1.37%     93.27% # Bytes accessed per row activation
system.physmem.bytesPerActivate::768-895         9595      1.11%     94.38% # Bytes accessed per row activation
system.physmem.bytesPerActivate::896-1023         9879      1.14%     95.52% # Bytes accessed per row activation
system.physmem.bytesPerActivate::1024-1151        38820      4.48%    100.00% # Bytes accessed per row activation
system.physmem.bytesPerActivate::total         866706                       # Bytes accessed per row activation
system.physmem.rdPerTurnAround::samples         64746                       # Reads before turning the bus around for writes
system.physmem.rdPerTurnAround::mean        21.358308                       # Reads before turning the bus around for writes
system.physmem.rdPerTurnAround::stdev      318.389928                       # Reads before turning the bus around for writes
system.physmem.rdPerTurnAround::0-4095          64744    100.00%    100.00% # Reads before turning the bus around for writes
system.physmem.rdPerTurnAround::20480-24575            1      0.00%    100.00% # Reads before turning the bus around for writes
system.physmem.rdPerTurnAround::77824-81919            1      0.00%    100.00% # Reads before turning the bus around for writes
system.physmem.rdPerTurnAround::total           64746                       # Reads before turning the bus around for writes
system.physmem.wrPerTurnAround::samples         64746                       # Writes before turning the bus around for reads
system.physmem.wrPerTurnAround::mean        17.577549                       # Writes before turning the bus around for reads
system.physmem.wrPerTurnAround::gmean       17.073829                       # Writes before turning the bus around for reads
system.physmem.wrPerTurnAround::stdev        6.807966                       # Writes before turning the bus around for reads
system.physmem.wrPerTurnAround::16-19           61438     94.89%     94.89% # Writes before turning the bus around for reads
system.physmem.wrPerTurnAround::20-23             935      1.44%     96.33% # Writes before turning the bus around for reads
system.physmem.wrPerTurnAround::24-27             457      0.71%     97.04% # Writes before turning the bus around for reads
system.physmem.wrPerTurnAround::28-31             214      0.33%     97.37% # Writes before turning the bus around for reads
system.physmem.wrPerTurnAround::32-35             283      0.44%     97.81% # Writes before turning the bus around for reads
system.physmem.wrPerTurnAround::36-39             509      0.79%     98.59% # Writes before turning the bus around for reads
system.physmem.wrPerTurnAround::40-43             100      0.15%     98.75% # Writes before turning the bus around for reads
system.physmem.wrPerTurnAround::44-47              37      0.06%     98.81% # Writes before turning the bus around for reads
system.physmem.wrPerTurnAround::48-51              36      0.06%     98.86% # Writes before turning the bus around for reads
system.physmem.wrPerTurnAround::52-55              29      0.04%     98.91% # Writes before turning the bus around for reads
system.physmem.wrPerTurnAround::56-59              34      0.05%     98.96% # Writes before turning the bus around for reads
system.physmem.wrPerTurnAround::60-63              27      0.04%     99.00% # Writes before turning the bus around for reads
system.physmem.wrPerTurnAround::64-67             442      0.68%     99.68% # Writes before turning the bus around for reads
system.physmem.wrPerTurnAround::68-71              39      0.06%     99.74% # Writes before turning the bus around for reads
system.physmem.wrPerTurnAround::72-75              47      0.07%     99.82% # Writes before turning the bus around for reads
system.physmem.wrPerTurnAround::76-79              53      0.08%     99.90% # Writes before turning the bus around for reads
system.physmem.wrPerTurnAround::80-83              11      0.02%     99.92% # Writes before turning the bus around for reads
system.physmem.wrPerTurnAround::88-91               2      0.00%     99.92% # Writes before turning the bus around for reads
system.physmem.wrPerTurnAround::92-95               4      0.01%     99.92% # Writes before turning the bus around for reads
system.physmem.wrPerTurnAround::96-99               1      0.00%     99.93% # Writes before turning the bus around for reads
system.physmem.wrPerTurnAround::100-103             3      0.00%     99.93% # Writes before turning the bus around for reads
system.physmem.wrPerTurnAround::104-107             1      0.00%     99.93% # Writes before turning the bus around for reads
system.physmem.wrPerTurnAround::112-115             1      0.00%     99.93% # Writes before turning the bus around for reads
system.physmem.wrPerTurnAround::120-123             1      0.00%     99.94% # Writes before turning the bus around for reads
system.physmem.wrPerTurnAround::128-131            16      0.02%     99.96% # Writes before turning the bus around for reads
system.physmem.wrPerTurnAround::132-135             2      0.00%     99.96% # Writes before turning the bus around for reads
system.physmem.wrPerTurnAround::136-139             2      0.00%     99.97% # Writes before turning the bus around for reads
system.physmem.wrPerTurnAround::144-147             2      0.00%     99.97% # Writes before turning the bus around for reads
system.physmem.wrPerTurnAround::148-151             1      0.00%     99.97% # Writes before turning the bus around for reads
system.physmem.wrPerTurnAround::152-155             2      0.00%     99.97% # Writes before turning the bus around for reads
system.physmem.wrPerTurnAround::156-159             2      0.00%     99.98% # Writes before turning the bus around for reads
system.physmem.wrPerTurnAround::160-163             1      0.00%     99.98% # Writes before turning the bus around for reads
system.physmem.wrPerTurnAround::164-167             6      0.01%     99.99% # Writes before turning the bus around for reads
system.physmem.wrPerTurnAround::168-171             1      0.00%     99.99% # Writes before turning the bus around for reads
system.physmem.wrPerTurnAround::172-175             1      0.00%     99.99% # Writes before turning the bus around for reads
system.physmem.wrPerTurnAround::176-179             5      0.01%    100.00% # Writes before turning the bus around for reads
system.physmem.wrPerTurnAround::196-199             1      0.00%    100.00% # Writes before turning the bus around for reads
system.physmem.wrPerTurnAround::total           64746                       # Writes before turning the bus around for reads
system.physmem.totQLat                    34994473123                       # Total ticks spent queuing
system.physmem.totMemAccLat               60923323123                       # Total ticks spent from burst creation until serviced by the DRAM
system.physmem.totBusLat                   6914360000                       # Total ticks spent in databus transfers
system.physmem.avgQLat                       25305.65                       # Average queueing delay per DRAM burst
system.physmem.avgBusLat                      5000.00                       # Average bus latency per DRAM burst
system.physmem.avgMemAccLat                  44055.65                       # Average memory access latency per DRAM burst
system.physmem.avgRdBW                           1.86                       # Average DRAM read bandwidth in MiByte/s
system.physmem.avgWrBW                           1.53                       # Average achieved write bandwidth in MiByte/s
system.physmem.avgRdBWSys                        1.81                       # Average system read bandwidth in MiByte/s
system.physmem.avgWrBWSys                        1.53                       # Average system write bandwidth in MiByte/s
system.physmem.peakBW                        12800.00                       # Theoretical peak bandwidth in MiByte/s
system.physmem.busUtil                           0.03                       # Data bus utilization in percentage
system.physmem.busUtilRead                       0.01                       # Data bus utilization in percentage for reads
system.physmem.busUtilWrite                      0.01                       # Data bus utilization in percentage for writes
system.physmem.avgRdQLen                         1.44                       # Average read queue length when enqueuing
system.physmem.avgWrQLen                        24.88                       # Average write queue length when enqueuing
system.physmem.readRowHits                    1113162                       # Number of row buffer hits during reads
system.physmem.writeRowHits                    541079                       # Number of row buffer hits during writes
system.physmem.readRowHitRate                   80.50                       # Row buffer hit rate for reads
system.physmem.writeRowHitRate                  47.54                       # Row buffer hit rate for writes
system.physmem.avgGap                     18820295.26                       # Average gap between requests
system.physmem.pageHitRate                      65.62                       # Row buffer hit rate, read and write combined
system.physmem_0.actEnergy                 3392073720                       # Energy for activate commands per rank (pJ)
system.physmem_0.preEnergy                 1850833875                       # Energy for precharge commands per rank (pJ)
system.physmem_0.readEnergy                5421273000                       # Energy for read commands per rank (pJ)
system.physmem_0.writeEnergy               3772869840                       # Energy for write commands per rank (pJ)
system.physmem_0.refreshEnergy           3102232782480                       # Energy for refresh commands per rank (pJ)
system.physmem_0.actBackEnergy           1205451752805                       # Energy for active background per rank (pJ)
system.physmem_0.preBackEnergy           27440415505500                       # Energy for precharge background per rank (pJ)
system.physmem_0.totalEnergy             31762537091220                       # Total energy per rank (pJ)
system.physmem_0.averagePower              668.735925                       # Core power per rank (mW)
system.physmem_0.memoryStateTime::IDLE   45648791331206                       # Time in different power states
system.physmem_0.memoryStateTime::REF    1586008580000                       # Time in different power states
system.physmem_0.memoryStateTime::PRE_PDN            0                       # Time in different power states
system.physmem_0.memoryStateTime::ACT    261586624794                       # Time in different power states
system.physmem_0.memoryStateTime::ACT_PDN            0                       # Time in different power states
system.physmem_1.actEnergy                 3160223640                       # Energy for activate commands per rank (pJ)
system.physmem_1.preEnergy                 1724328375                       # Energy for precharge commands per rank (pJ)
system.physmem_1.readEnergy                5365089600                       # Energy for read commands per rank (pJ)
system.physmem_1.writeEnergy               3601862640                       # Energy for write commands per rank (pJ)
system.physmem_1.refreshEnergy           3102232782480                       # Energy for refresh commands per rank (pJ)
system.physmem_1.actBackEnergy           1192319355510                       # Energy for active background per rank (pJ)
system.physmem_1.preBackEnergy           27451935144000                       # Energy for precharge background per rank (pJ)
system.physmem_1.totalEnergy             31760338786245                       # Total energy per rank (pJ)
system.physmem_1.averagePower              668.689642                       # Core power per rank (mW)
system.physmem_1.memoryStateTime::IDLE   45667995849266                       # Time in different power states
system.physmem_1.memoryStateTime::REF    1586008580000                       # Time in different power states
system.physmem_1.memoryStateTime::PRE_PDN            0                       # Time in different power states
system.physmem_1.memoryStateTime::ACT    242377776984                       # Time in different power states
system.physmem_1.memoryStateTime::ACT_PDN            0                       # Time in different power states
system.realview.nvmem.bytes_read::cpu0.inst           96                       # Number of bytes read from this memory
system.realview.nvmem.bytes_read::cpu0.data           36                       # Number of bytes read from this memory
system.realview.nvmem.bytes_read::cpu1.inst           64                       # Number of bytes read from this memory
system.realview.nvmem.bytes_read::cpu1.data            8                       # Number of bytes read from this memory
system.realview.nvmem.bytes_read::total           204                       # Number of bytes read from this memory
system.realview.nvmem.bytes_inst_read::cpu0.inst           96                       # Number of instructions bytes read from this memory
system.realview.nvmem.bytes_inst_read::cpu1.inst           64                       # Number of instructions bytes read from this memory
system.realview.nvmem.bytes_inst_read::total          160                       # Number of instructions bytes read from this memory
system.realview.nvmem.num_reads::cpu0.inst           24                       # Number of read requests responded to by this memory
system.realview.nvmem.num_reads::cpu0.data            5                       # Number of read requests responded to by this memory
system.realview.nvmem.num_reads::cpu1.inst           16                       # Number of read requests responded to by this memory
system.realview.nvmem.num_reads::cpu1.data            1                       # Number of read requests responded to by this memory
system.realview.nvmem.num_reads::total             46                       # Number of read requests responded to by this memory
system.realview.nvmem.bw_read::cpu0.inst            2                       # Total read bandwidth from this memory (bytes/s)
system.realview.nvmem.bw_read::cpu0.data            1                       # Total read bandwidth from this memory (bytes/s)
system.realview.nvmem.bw_read::cpu1.inst            1                       # Total read bandwidth from this memory (bytes/s)
system.realview.nvmem.bw_read::cpu1.data            0                       # Total read bandwidth from this memory (bytes/s)
system.realview.nvmem.bw_read::total                4                       # Total read bandwidth from this memory (bytes/s)
system.realview.nvmem.bw_inst_read::cpu0.inst            2                       # Instruction read bandwidth from this memory (bytes/s)
system.realview.nvmem.bw_inst_read::cpu1.inst            1                       # Instruction read bandwidth from this memory (bytes/s)
system.realview.nvmem.bw_inst_read::total            3                       # Instruction read bandwidth from this memory (bytes/s)
system.realview.nvmem.bw_total::cpu0.inst            2                       # Total bandwidth to/from this memory (bytes/s)
system.realview.nvmem.bw_total::cpu0.data            1                       # Total bandwidth to/from this memory (bytes/s)
system.realview.nvmem.bw_total::cpu1.inst            1                       # Total bandwidth to/from this memory (bytes/s)
system.realview.nvmem.bw_total::cpu1.data            0                       # Total bandwidth to/from this memory (bytes/s)
system.realview.nvmem.bw_total::total               4                       # Total bandwidth to/from this memory (bytes/s)
system.cf0.dma_read_full_pages                    122                       # Number of full page size DMA reads (not PRD).
system.cf0.dma_read_bytes                      499712                       # Number of bytes transfered via DMA reads (not PRD).
system.cf0.dma_read_txs                           122                       # Number of DMA read transactions (not PRD).
system.cf0.dma_write_full_pages                  1667                       # Number of full page size DMA writes.
system.cf0.dma_write_bytes                    6830592                       # Number of bytes transfered via DMA writes.
system.cf0.dma_write_txs                         1670                       # Number of DMA write transactions.
system.cpu_clk_domain.clock                       500                       # Clock period in ticks
system.cpu0.dstage2_mmu.stage2_tlb.walker.walks            0                       # Table walker walks requested
system.cpu0.dstage2_mmu.stage2_tlb.walker.walkRequestOrigin_Requested::Data            0                       # Table walker requests started/completed, data/inst
system.cpu0.dstage2_mmu.stage2_tlb.walker.walkRequestOrigin_Requested::Inst            0                       # Table walker requests started/completed, data/inst
system.cpu0.dstage2_mmu.stage2_tlb.walker.walkRequestOrigin_Requested::total            0                       # Table walker requests started/completed, data/inst
system.cpu0.dstage2_mmu.stage2_tlb.walker.walkRequestOrigin_Completed::Data            0                       # Table walker requests started/completed, data/inst
system.cpu0.dstage2_mmu.stage2_tlb.walker.walkRequestOrigin_Completed::Inst            0                       # Table walker requests started/completed, data/inst
system.cpu0.dstage2_mmu.stage2_tlb.walker.walkRequestOrigin_Completed::total            0                       # Table walker requests started/completed, data/inst
system.cpu0.dstage2_mmu.stage2_tlb.walker.walkRequestOrigin::total            0                       # Table walker requests started/completed, data/inst
system.cpu0.dstage2_mmu.stage2_tlb.inst_hits            0                       # ITB inst hits
system.cpu0.dstage2_mmu.stage2_tlb.inst_misses            0                       # ITB inst misses
system.cpu0.dstage2_mmu.stage2_tlb.read_hits            0                       # DTB read hits
system.cpu0.dstage2_mmu.stage2_tlb.read_misses            0                       # DTB read misses
system.cpu0.dstage2_mmu.stage2_tlb.write_hits            0                       # DTB write hits
system.cpu0.dstage2_mmu.stage2_tlb.write_misses            0                       # DTB write misses
system.cpu0.dstage2_mmu.stage2_tlb.flush_tlb            0                       # Number of times complete TLB was flushed
system.cpu0.dstage2_mmu.stage2_tlb.flush_tlb_mva            0                       # Number of times TLB was flushed by MVA
system.cpu0.dstage2_mmu.stage2_tlb.flush_tlb_mva_asid            0                       # Number of times TLB was flushed by MVA & ASID
system.cpu0.dstage2_mmu.stage2_tlb.flush_tlb_asid            0                       # Number of times TLB was flushed by ASID
system.cpu0.dstage2_mmu.stage2_tlb.flush_entries            0                       # Number of entries that have been flushed from TLB
system.cpu0.dstage2_mmu.stage2_tlb.align_faults            0                       # Number of TLB faults due to alignment restrictions
system.cpu0.dstage2_mmu.stage2_tlb.prefetch_faults            0                       # Number of TLB faults due to prefetch
system.cpu0.dstage2_mmu.stage2_tlb.domain_faults            0                       # Number of TLB faults due to domain restrictions
system.cpu0.dstage2_mmu.stage2_tlb.perms_faults            0                       # Number of TLB faults due to permissions restrictions
system.cpu0.dstage2_mmu.stage2_tlb.read_accesses            0                       # DTB read accesses
system.cpu0.dstage2_mmu.stage2_tlb.write_accesses            0                       # DTB write accesses
system.cpu0.dstage2_mmu.stage2_tlb.inst_accesses            0                       # ITB inst accesses
system.cpu0.dstage2_mmu.stage2_tlb.hits             0                       # DTB hits
system.cpu0.dstage2_mmu.stage2_tlb.misses            0                       # DTB misses
system.cpu0.dstage2_mmu.stage2_tlb.accesses            0                       # DTB accesses
system.cpu0.dtb.walker.walks                   104839                       # Table walker walks requested
system.cpu0.dtb.walker.walksLong               104839                       # Table walker walks initiated with long descriptors
system.cpu0.dtb.walker.walksLongTerminationLevel::Level2        10495                       # Level at which table walker walks with long descriptors terminate
system.cpu0.dtb.walker.walksLongTerminationLevel::Level3        79742                       # Level at which table walker walks with long descriptors terminate
system.cpu0.dtb.walker.walksSquashedBefore            9                       # Table walks squashed before starting
system.cpu0.dtb.walker.walkWaitTime::samples       104830                       # Table walker wait (enqueue to first request) latency
system.cpu0.dtb.walker.walkWaitTime::mean     0.171707                       # Table walker wait (enqueue to first request) latency
system.cpu0.dtb.walker.walkWaitTime::stdev    55.594229                       # Table walker wait (enqueue to first request) latency
system.cpu0.dtb.walker.walkWaitTime::0-2047       104829    100.00%    100.00% # Table walker wait (enqueue to first request) latency
system.cpu0.dtb.walker.walkWaitTime::16384-18431            1      0.00%    100.00% # Table walker wait (enqueue to first request) latency
system.cpu0.dtb.walker.walkWaitTime::total       104830                       # Table walker wait (enqueue to first request) latency
system.cpu0.dtb.walker.walkCompletionTime::samples        90246                       # Table walker service (enqueue to completion) latency
system.cpu0.dtb.walker.walkCompletionTime::mean 19548.112936                       # Table walker service (enqueue to completion) latency
system.cpu0.dtb.walker.walkCompletionTime::gmean 18016.919113                       # Table walker service (enqueue to completion) latency
system.cpu0.dtb.walker.walkCompletionTime::stdev 12415.253011                       # Table walker service (enqueue to completion) latency
system.cpu0.dtb.walker.walkCompletionTime::0-65535        89555     99.23%     99.23% # Table walker service (enqueue to completion) latency
system.cpu0.dtb.walker.walkCompletionTime::65536-131071          591      0.65%     99.89% # Table walker service (enqueue to completion) latency
system.cpu0.dtb.walker.walkCompletionTime::131072-196607           29      0.03%     99.92% # Table walker service (enqueue to completion) latency
system.cpu0.dtb.walker.walkCompletionTime::196608-262143           30      0.03%     99.95% # Table walker service (enqueue to completion) latency
system.cpu0.dtb.walker.walkCompletionTime::262144-327679           26      0.03%     99.98% # Table walker service (enqueue to completion) latency
system.cpu0.dtb.walker.walkCompletionTime::327680-393215            8      0.01%     99.99% # Table walker service (enqueue to completion) latency
system.cpu0.dtb.walker.walkCompletionTime::393216-458751            4      0.00%    100.00% # Table walker service (enqueue to completion) latency
system.cpu0.dtb.walker.walkCompletionTime::458752-524287            1      0.00%    100.00% # Table walker service (enqueue to completion) latency
system.cpu0.dtb.walker.walkCompletionTime::524288-589823            2      0.00%    100.00% # Table walker service (enqueue to completion) latency
system.cpu0.dtb.walker.walkCompletionTime::total        90246                       # Table walker service (enqueue to completion) latency
system.cpu0.dtb.walker.walksPending::samples  -2134286464                       # Table walker pending requests distribution
system.cpu0.dtb.walker.walksPending::mean     1.271898                       # Table walker pending requests distribution
system.cpu0.dtb.walker.walksPending::0      580308492    -27.19%    -27.19% # Table walker pending requests distribution
system.cpu0.dtb.walker.walksPending::1    -2714594956    127.19%    100.00% # Table walker pending requests distribution
system.cpu0.dtb.walker.walksPending::total  -2134286464                       # Table walker pending requests distribution
system.cpu0.dtb.walker.walkPageSizes::4K        79742     88.37%     88.37% # Table walker page sizes translated
system.cpu0.dtb.walker.walkPageSizes::2M        10495     11.63%    100.00% # Table walker page sizes translated
system.cpu0.dtb.walker.walkPageSizes::total        90237                       # Table walker page sizes translated
system.cpu0.dtb.walker.walkRequestOrigin_Requested::Data       104839                       # Table walker requests started/completed, data/inst
system.cpu0.dtb.walker.walkRequestOrigin_Requested::Inst            0                       # Table walker requests started/completed, data/inst
system.cpu0.dtb.walker.walkRequestOrigin_Requested::total       104839                       # Table walker requests started/completed, data/inst
system.cpu0.dtb.walker.walkRequestOrigin_Completed::Data        90237                       # Table walker requests started/completed, data/inst
system.cpu0.dtb.walker.walkRequestOrigin_Completed::Inst            0                       # Table walker requests started/completed, data/inst
system.cpu0.dtb.walker.walkRequestOrigin_Completed::total        90237                       # Table walker requests started/completed, data/inst
system.cpu0.dtb.walker.walkRequestOrigin::total       195076                       # Table walker requests started/completed, data/inst
system.cpu0.dtb.inst_hits                           0                       # ITB inst hits
system.cpu0.dtb.inst_misses                         0                       # ITB inst misses
system.cpu0.dtb.read_hits                    85272873                       # DTB read hits
system.cpu0.dtb.read_misses                     78883                       # DTB read misses
system.cpu0.dtb.write_hits                   76479493                       # DTB write hits
system.cpu0.dtb.write_misses                    25956                       # DTB write misses
system.cpu0.dtb.flush_tlb                          14                       # Number of times complete TLB was flushed
system.cpu0.dtb.flush_tlb_mva                       0                       # Number of times TLB was flushed by MVA
system.cpu0.dtb.flush_tlb_mva_asid              40618                       # Number of times TLB was flushed by MVA & ASID
system.cpu0.dtb.flush_tlb_asid                   1028                       # Number of times TLB was flushed by ASID
system.cpu0.dtb.flush_entries                   39585                       # Number of entries that have been flushed from TLB
system.cpu0.dtb.align_faults                        0                       # Number of TLB faults due to alignment restrictions
system.cpu0.dtb.prefetch_faults                  4176                       # Number of TLB faults due to prefetch
system.cpu0.dtb.domain_faults                       0                       # Number of TLB faults due to domain restrictions
system.cpu0.dtb.perms_faults                    10186                       # Number of TLB faults due to permissions restrictions
system.cpu0.dtb.read_accesses                85351756                       # DTB read accesses
system.cpu0.dtb.write_accesses               76505449                       # DTB write accesses
system.cpu0.dtb.inst_accesses                       0                       # ITB inst accesses
system.cpu0.dtb.hits                        161752366                       # DTB hits
system.cpu0.dtb.misses                         104839                       # DTB misses
system.cpu0.dtb.accesses                    161857205                       # DTB accesses
system.cpu0.istage2_mmu.stage2_tlb.walker.walks            0                       # Table walker walks requested
system.cpu0.istage2_mmu.stage2_tlb.walker.walkRequestOrigin_Requested::Data            0                       # Table walker requests started/completed, data/inst
system.cpu0.istage2_mmu.stage2_tlb.walker.walkRequestOrigin_Requested::Inst            0                       # Table walker requests started/completed, data/inst
system.cpu0.istage2_mmu.stage2_tlb.walker.walkRequestOrigin_Requested::total            0                       # Table walker requests started/completed, data/inst
system.cpu0.istage2_mmu.stage2_tlb.walker.walkRequestOrigin_Completed::Data            0                       # Table walker requests started/completed, data/inst
system.cpu0.istage2_mmu.stage2_tlb.walker.walkRequestOrigin_Completed::Inst            0                       # Table walker requests started/completed, data/inst
system.cpu0.istage2_mmu.stage2_tlb.walker.walkRequestOrigin_Completed::total            0                       # Table walker requests started/completed, data/inst
system.cpu0.istage2_mmu.stage2_tlb.walker.walkRequestOrigin::total            0                       # Table walker requests started/completed, data/inst
system.cpu0.istage2_mmu.stage2_tlb.inst_hits            0                       # ITB inst hits
system.cpu0.istage2_mmu.stage2_tlb.inst_misses            0                       # ITB inst misses
system.cpu0.istage2_mmu.stage2_tlb.read_hits            0                       # DTB read hits
system.cpu0.istage2_mmu.stage2_tlb.read_misses            0                       # DTB read misses
system.cpu0.istage2_mmu.stage2_tlb.write_hits            0                       # DTB write hits
system.cpu0.istage2_mmu.stage2_tlb.write_misses            0                       # DTB write misses
system.cpu0.istage2_mmu.stage2_tlb.flush_tlb            0                       # Number of times complete TLB was flushed
system.cpu0.istage2_mmu.stage2_tlb.flush_tlb_mva            0                       # Number of times TLB was flushed by MVA
system.cpu0.istage2_mmu.stage2_tlb.flush_tlb_mva_asid            0                       # Number of times TLB was flushed by MVA & ASID
system.cpu0.istage2_mmu.stage2_tlb.flush_tlb_asid            0                       # Number of times TLB was flushed by ASID
system.cpu0.istage2_mmu.stage2_tlb.flush_entries            0                       # Number of entries that have been flushed from TLB
system.cpu0.istage2_mmu.stage2_tlb.align_faults            0                       # Number of TLB faults due to alignment restrictions
system.cpu0.istage2_mmu.stage2_tlb.prefetch_faults            0                       # Number of TLB faults due to prefetch
system.cpu0.istage2_mmu.stage2_tlb.domain_faults            0                       # Number of TLB faults due to domain restrictions
system.cpu0.istage2_mmu.stage2_tlb.perms_faults            0                       # Number of TLB faults due to permissions restrictions
system.cpu0.istage2_mmu.stage2_tlb.read_accesses            0                       # DTB read accesses
system.cpu0.istage2_mmu.stage2_tlb.write_accesses            0                       # DTB write accesses
system.cpu0.istage2_mmu.stage2_tlb.inst_accesses            0                       # ITB inst accesses
system.cpu0.istage2_mmu.stage2_tlb.hits             0                       # DTB hits
system.cpu0.istage2_mmu.stage2_tlb.misses            0                       # DTB misses
system.cpu0.istage2_mmu.stage2_tlb.accesses            0                       # DTB accesses
system.cpu0.itb.walker.walks                    57460                       # Table walker walks requested
system.cpu0.itb.walker.walksLong                57460                       # Table walker walks initiated with long descriptors
system.cpu0.itb.walker.walksLongTerminationLevel::Level2          729                       # Level at which table walker walks with long descriptors terminate
system.cpu0.itb.walker.walksLongTerminationLevel::Level3        51308                       # Level at which table walker walks with long descriptors terminate
system.cpu0.itb.walker.walkWaitTime::samples        57460                       # Table walker wait (enqueue to first request) latency
system.cpu0.itb.walker.walkWaitTime::0          57460    100.00%    100.00% # Table walker wait (enqueue to first request) latency
system.cpu0.itb.walker.walkWaitTime::total        57460                       # Table walker wait (enqueue to first request) latency
system.cpu0.itb.walker.walkCompletionTime::samples        52037                       # Table walker service (enqueue to completion) latency
system.cpu0.itb.walker.walkCompletionTime::mean 22020.322079                       # Table walker service (enqueue to completion) latency
system.cpu0.itb.walker.walkCompletionTime::gmean 19981.613647                       # Table walker service (enqueue to completion) latency
system.cpu0.itb.walker.walkCompletionTime::stdev 15973.969343                       # Table walker service (enqueue to completion) latency
system.cpu0.itb.walker.walkCompletionTime::0-32767        48320     92.86%     92.86% # Table walker service (enqueue to completion) latency
system.cpu0.itb.walker.walkCompletionTime::32768-65535         2946      5.66%     98.52% # Table walker service (enqueue to completion) latency
system.cpu0.itb.walker.walkCompletionTime::65536-98303          248      0.48%     98.99% # Table walker service (enqueue to completion) latency
system.cpu0.itb.walker.walkCompletionTime::98304-131071          406      0.78%     99.78% # Table walker service (enqueue to completion) latency
system.cpu0.itb.walker.walkCompletionTime::131072-163839           23      0.04%     99.82% # Table walker service (enqueue to completion) latency
system.cpu0.itb.walker.walkCompletionTime::163840-196607            9      0.02%     99.84% # Table walker service (enqueue to completion) latency
system.cpu0.itb.walker.walkCompletionTime::196608-229375           33      0.06%     99.90% # Table walker service (enqueue to completion) latency
system.cpu0.itb.walker.walkCompletionTime::229376-262143            6      0.01%     99.91% # Table walker service (enqueue to completion) latency
system.cpu0.itb.walker.walkCompletionTime::262144-294911           15      0.03%     99.94% # Table walker service (enqueue to completion) latency
system.cpu0.itb.walker.walkCompletionTime::294912-327679           16      0.03%     99.97% # Table walker service (enqueue to completion) latency
system.cpu0.itb.walker.walkCompletionTime::327680-360447            8      0.02%     99.99% # Table walker service (enqueue to completion) latency
system.cpu0.itb.walker.walkCompletionTime::360448-393215            5      0.01%    100.00% # Table walker service (enqueue to completion) latency
system.cpu0.itb.walker.walkCompletionTime::393216-425983            2      0.00%    100.00% # Table walker service (enqueue to completion) latency
system.cpu0.itb.walker.walkCompletionTime::total        52037                       # Table walker service (enqueue to completion) latency
system.cpu0.itb.walker.walksPending::samples   -326738796                       # Table walker pending requests distribution
system.cpu0.itb.walker.walksPending::0     -326738796    100.00%    100.00% # Table walker pending requests distribution
system.cpu0.itb.walker.walksPending::total   -326738796                       # Table walker pending requests distribution
system.cpu0.itb.walker.walkPageSizes::4K        51308     98.60%     98.60% # Table walker page sizes translated
system.cpu0.itb.walker.walkPageSizes::2M          729      1.40%    100.00% # Table walker page sizes translated
system.cpu0.itb.walker.walkPageSizes::total        52037                       # Table walker page sizes translated
system.cpu0.itb.walker.walkRequestOrigin_Requested::Data            0                       # Table walker requests started/completed, data/inst
system.cpu0.itb.walker.walkRequestOrigin_Requested::Inst        57460                       # Table walker requests started/completed, data/inst
system.cpu0.itb.walker.walkRequestOrigin_Requested::total        57460                       # Table walker requests started/completed, data/inst
system.cpu0.itb.walker.walkRequestOrigin_Completed::Data            0                       # Table walker requests started/completed, data/inst
system.cpu0.itb.walker.walkRequestOrigin_Completed::Inst        52037                       # Table walker requests started/completed, data/inst
system.cpu0.itb.walker.walkRequestOrigin_Completed::total        52037                       # Table walker requests started/completed, data/inst
system.cpu0.itb.walker.walkRequestOrigin::total       109497                       # Table walker requests started/completed, data/inst
system.cpu0.itb.inst_hits                   453477294                       # ITB inst hits
system.cpu0.itb.inst_misses                     57460                       # ITB inst misses
system.cpu0.itb.read_hits                           0                       # DTB read hits
system.cpu0.itb.read_misses                         0                       # DTB read misses
system.cpu0.itb.write_hits                          0                       # DTB write hits
system.cpu0.itb.write_misses                        0                       # DTB write misses
system.cpu0.itb.flush_tlb                          14                       # Number of times complete TLB was flushed
system.cpu0.itb.flush_tlb_mva                       0                       # Number of times TLB was flushed by MVA
system.cpu0.itb.flush_tlb_mva_asid              40618                       # Number of times TLB was flushed by MVA & ASID
system.cpu0.itb.flush_tlb_asid                   1028                       # Number of times TLB was flushed by ASID
system.cpu0.itb.flush_entries                   27698                       # Number of entries that have been flushed from TLB
system.cpu0.itb.align_faults                        0                       # Number of TLB faults due to alignment restrictions
system.cpu0.itb.prefetch_faults                     0                       # Number of TLB faults due to prefetch
system.cpu0.itb.domain_faults                       0                       # Number of TLB faults due to domain restrictions
system.cpu0.itb.perms_faults                        0                       # Number of TLB faults due to permissions restrictions
system.cpu0.itb.read_accesses                       0                       # DTB read accesses
system.cpu0.itb.write_accesses                      0                       # DTB write accesses
system.cpu0.itb.inst_accesses               453534754                       # ITB inst accesses
system.cpu0.itb.hits                        453477294                       # DTB hits
system.cpu0.itb.misses                          57460                       # DTB misses
system.cpu0.itb.accesses                    453534754                       # DTB accesses
system.cpu0.numCycles                     94992773961                       # number of cpu cycles simulated
system.cpu0.numWorkItemsStarted                     0                       # number of work items this cpu started
system.cpu0.numWorkItemsCompleted                   0                       # number of work items this cpu completed
system.cpu0.committedInsts                  453209687                       # Number of instructions committed
system.cpu0.committedOps                    531499422                       # Number of ops (including micro ops) committed
system.cpu0.num_int_alu_accesses            488089676                       # Number of integer alu accesses
system.cpu0.num_fp_alu_accesses                379595                       # Number of float alu accesses
system.cpu0.num_func_calls                   26785883                       # number of times a function call or return occured
system.cpu0.num_conditional_control_insts     68737200                       # number of instructions that are conditional controls
system.cpu0.num_int_insts                   488089676                       # number of integer instructions
system.cpu0.num_fp_insts                       379595                       # number of float instructions
system.cpu0.num_int_register_reads          710027821                       # number of times the integer registers were read
system.cpu0.num_int_register_writes         387728381                       # number of times the integer registers were written
system.cpu0.num_fp_register_reads              639718                       # number of times the floating registers were read
system.cpu0.num_fp_register_writes             261592                       # number of times the floating registers were written
system.cpu0.num_cc_register_reads           118698555                       # number of times the CC registers were read
system.cpu0.num_cc_register_writes          118319526                       # number of times the CC registers were written
system.cpu0.num_mem_refs                    161743236                       # number of memory refs
system.cpu0.num_load_insts                   85268904                       # Number of load instructions
system.cpu0.num_store_insts                  76474332                       # Number of store instructions
system.cpu0.num_idle_cycles              93849963781.964020                       # Number of idle cycles
system.cpu0.num_busy_cycles              1142810179.035976                       # Number of busy cycles
system.cpu0.not_idle_fraction                0.012030                       # Percentage of non-idle cycles
system.cpu0.idle_fraction                    0.987970                       # Percentage of idle cycles
system.cpu0.Branches                        100837041                       # Number of branches fetched
system.cpu0.op_class::No_OpClass                    0      0.00%      0.00% # Class of executed instruction
system.cpu0.op_class::IntAlu                368748107     69.34%     69.34% # Class of executed instruction
system.cpu0.op_class::IntMult                 1224660      0.23%     69.57% # Class of executed instruction
system.cpu0.op_class::IntDiv                    64156      0.01%     69.58% # Class of executed instruction
system.cpu0.op_class::FloatAdd                      0      0.00%     69.58% # Class of executed instruction
system.cpu0.op_class::FloatCmp                      0      0.00%     69.58% # Class of executed instruction
system.cpu0.op_class::FloatCvt                      0      0.00%     69.58% # Class of executed instruction
system.cpu0.op_class::FloatMult                     0      0.00%     69.58% # Class of executed instruction
system.cpu0.op_class::FloatDiv                      0      0.00%     69.58% # Class of executed instruction
system.cpu0.op_class::FloatSqrt                     0      0.00%     69.58% # Class of executed instruction
system.cpu0.op_class::SimdAdd                       0      0.00%     69.58% # Class of executed instruction
system.cpu0.op_class::SimdAddAcc                    0      0.00%     69.58% # Class of executed instruction
system.cpu0.op_class::SimdAlu                       0      0.00%     69.58% # Class of executed instruction
system.cpu0.op_class::SimdCmp                       0      0.00%     69.58% # Class of executed instruction
system.cpu0.op_class::SimdCvt                       0      0.00%     69.58% # Class of executed instruction
system.cpu0.op_class::SimdMisc                      0      0.00%     69.58% # Class of executed instruction
system.cpu0.op_class::SimdMult                      0      0.00%     69.58% # Class of executed instruction
system.cpu0.op_class::SimdMultAcc                   0      0.00%     69.58% # Class of executed instruction
system.cpu0.op_class::SimdShift                     0      0.00%     69.58% # Class of executed instruction
system.cpu0.op_class::SimdShiftAcc                  0      0.00%     69.58% # Class of executed instruction
system.cpu0.op_class::SimdSqrt                      0      0.00%     69.58% # Class of executed instruction
system.cpu0.op_class::SimdFloatAdd                  0      0.00%     69.58% # Class of executed instruction
system.cpu0.op_class::SimdFloatAlu                  0      0.00%     69.58% # Class of executed instruction
system.cpu0.op_class::SimdFloatCmp                  0      0.00%     69.58% # Class of executed instruction
system.cpu0.op_class::SimdFloatCvt                  0      0.00%     69.58% # Class of executed instruction
system.cpu0.op_class::SimdFloatDiv                  0      0.00%     69.58% # Class of executed instruction
system.cpu0.op_class::SimdFloatMisc             29994      0.01%     69.59% # Class of executed instruction
system.cpu0.op_class::SimdFloatMult                 0      0.00%     69.59% # Class of executed instruction
system.cpu0.op_class::SimdFloatMultAcc              0      0.00%     69.59% # Class of executed instruction
system.cpu0.op_class::SimdFloatSqrt                 0      0.00%     69.59% # Class of executed instruction
system.cpu0.op_class::MemRead                85268904     16.03%     85.62% # Class of executed instruction
system.cpu0.op_class::MemWrite               76474332     14.38%    100.00% # Class of executed instruction
system.cpu0.op_class::IprAccess                     0      0.00%    100.00% # Class of executed instruction
system.cpu0.op_class::InstPrefetch                  0      0.00%    100.00% # Class of executed instruction
system.cpu0.op_class::total                 531810153                       # Class of executed instruction
system.cpu0.kern.inst.arm                           0                       # number of arm instructions executed
system.cpu0.kern.inst.quiesce                   14069                       # number of quiesce instructions executed
system.cpu0.dcache.tags.replacements          5594005                       # number of replacements
system.cpu0.dcache.tags.tagsinuse          472.878328                       # Cycle average of tags in use
system.cpu0.dcache.tags.total_refs          155905526                       # Total number of references to valid blocks.
system.cpu0.dcache.tags.sampled_refs          5594517                       # Sample count of references to valid blocks.
system.cpu0.dcache.tags.avg_refs            27.867558                       # Average number of references to valid blocks.
system.cpu0.dcache.tags.warmup_cycle       3986453000                       # Cycle when the warmup percentage was hit.
system.cpu0.dcache.tags.occ_blocks::cpu0.data   472.878328                       # Average occupied blocks per requestor
system.cpu0.dcache.tags.occ_percent::cpu0.data     0.923590                       # Average percentage of cache occupancy
system.cpu0.dcache.tags.occ_percent::total     0.923590                       # Average percentage of cache occupancy
system.cpu0.dcache.tags.occ_task_id_blocks::1024          512                       # Occupied blocks per task id
system.cpu0.dcache.tags.age_task_id_blocks_1024::0          122                       # Occupied blocks per task id
system.cpu0.dcache.tags.age_task_id_blocks_1024::1           52                       # Occupied blocks per task id
system.cpu0.dcache.tags.age_task_id_blocks_1024::2          337                       # Occupied blocks per task id
system.cpu0.dcache.tags.age_task_id_blocks_1024::3            1                       # Occupied blocks per task id
system.cpu0.dcache.tags.occ_task_id_percent::1024            1                       # Percentage of cache occupancy per task id
system.cpu0.dcache.tags.tag_accesses        329066714                       # Number of tag accesses
system.cpu0.dcache.tags.data_accesses       329066714                       # Number of data accesses
system.cpu0.dcache.ReadReq_hits::cpu0.data     79426163                       # number of ReadReq hits
system.cpu0.dcache.ReadReq_hits::total       79426163                       # number of ReadReq hits
system.cpu0.dcache.WriteReq_hits::cpu0.data     72239104                       # number of WriteReq hits
system.cpu0.dcache.WriteReq_hits::total      72239104                       # number of WriteReq hits
system.cpu0.dcache.SoftPFReq_hits::cpu0.data       186194                       # number of SoftPFReq hits
system.cpu0.dcache.SoftPFReq_hits::total       186194                       # number of SoftPFReq hits
system.cpu0.dcache.WriteLineReq_hits::cpu0.data       137014                       # number of WriteLineReq hits
system.cpu0.dcache.WriteLineReq_hits::total       137014                       # number of WriteLineReq hits
system.cpu0.dcache.LoadLockedReq_hits::cpu0.data      1774977                       # number of LoadLockedReq hits
system.cpu0.dcache.LoadLockedReq_hits::total      1774977                       # number of LoadLockedReq hits
system.cpu0.dcache.StoreCondReq_hits::cpu0.data      1742409                       # number of StoreCondReq hits
system.cpu0.dcache.StoreCondReq_hits::total      1742409                       # number of StoreCondReq hits
system.cpu0.dcache.demand_hits::cpu0.data    151665267                       # number of demand (read+write) hits
system.cpu0.dcache.demand_hits::total       151665267                       # number of demand (read+write) hits
system.cpu0.dcache.overall_hits::cpu0.data    151851461                       # number of overall hits
system.cpu0.dcache.overall_hits::total      151851461                       # number of overall hits
system.cpu0.dcache.ReadReq_misses::cpu0.data      3027243                       # number of ReadReq misses
system.cpu0.dcache.ReadReq_misses::total      3027243                       # number of ReadReq misses
system.cpu0.dcache.WriteReq_misses::cpu0.data      1374655                       # number of WriteReq misses
system.cpu0.dcache.WriteReq_misses::total      1374655                       # number of WriteReq misses
system.cpu0.dcache.SoftPFReq_misses::cpu0.data       667737                       # number of SoftPFReq misses
system.cpu0.dcache.SoftPFReq_misses::total       667737                       # number of SoftPFReq misses
[...]
system.l2c.demand_avg_mshr_miss_latency::cpu1.itb.walker 78308.666292                       # average overall mshr miss latency
system.l2c.demand_avg_mshr_miss_latency::cpu1.inst 73811.215628                       # average overall mshr miss latency
system.l2c.demand_avg_mshr_miss_latency::cpu1.data 73960.340671                       # average overall mshr miss latency
system.l2c.demand_avg_mshr_miss_latency::cpu1.l2cache.prefetcher 108934.888419                       # average overall mshr miss latency
system.l2c.demand_avg_mshr_miss_latency::total 84703.646154                       # average overall mshr miss latency
system.l2c.overall_avg_mshr_miss_latency::cpu0.dtb.walker 80056.752278                       # average overall mshr miss latency
system.l2c.overall_avg_mshr_miss_latency::cpu0.itb.walker 80154.975530                       # average overall mshr miss latency
system.l2c.overall_avg_mshr_miss_latency::cpu0.inst 73558.828250                       # average overall mshr miss latency
system.l2c.overall_avg_mshr_miss_latency::cpu0.data 74610.489030                       # average overall mshr miss latency
system.l2c.overall_avg_mshr_miss_latency::cpu0.l2cache.prefetcher 109885.415433                       # average overall mshr miss latency
system.l2c.overall_avg_mshr_miss_latency::cpu1.dtb.walker 77889.860140                       # average overall mshr miss latency
system.l2c.overall_avg_mshr_miss_latency::cpu1.itb.walker 78308.666292                       # average overall mshr miss latency
system.l2c.overall_avg_mshr_miss_latency::cpu1.inst 73811.215628                       # average overall mshr miss latency
system.l2c.overall_avg_mshr_miss_latency::cpu1.data 73960.340671                       # average overall mshr miss latency
system.l2c.overall_avg_mshr_miss_latency::cpu1.l2cache.prefetcher 108934.888419                       # average overall mshr miss latency
system.l2c.overall_avg_mshr_miss_latency::total 84703.646154                       # average overall mshr miss latency
system.l2c.ReadReq_avg_mshr_uncacheable_latency::cpu0.inst 62099.176812                       # average ReadReq mshr uncacheable latency
system.l2c.ReadReq_avg_mshr_uncacheable_latency::cpu0.data 143281.266150                       # average ReadReq mshr uncacheable latency
system.l2c.ReadReq_avg_mshr_uncacheable_latency::cpu1.inst 62331.818182                       # average ReadReq mshr uncacheable latency
system.l2c.ReadReq_avg_mshr_uncacheable_latency::cpu1.data 146941.237673                       # average ReadReq mshr uncacheable latency
system.l2c.ReadReq_avg_mshr_uncacheable_latency::total 100647.773354                       # average ReadReq mshr uncacheable latency
system.l2c.WriteReq_avg_mshr_uncacheable_latency::cpu0.data 136619.393758                       # average WriteReq mshr uncacheable latency
system.l2c.WriteReq_avg_mshr_uncacheable_latency::cpu1.data 154772.461974                       # average WriteReq mshr uncacheable latency
system.l2c.WriteReq_avg_mshr_uncacheable_latency::total 142021.791194                       # average WriteReq mshr uncacheable latency
system.l2c.overall_avg_mshr_uncacheable_latency::cpu0.inst 62099.176812                       # average overall mshr uncacheable latency
system.l2c.overall_avg_mshr_uncacheable_latency::cpu0.data 139975.166887                       # average overall mshr uncacheable latency
system.l2c.overall_avg_mshr_uncacheable_latency::cpu1.inst 62331.818182                       # average overall mshr uncacheable latency
system.l2c.overall_avg_mshr_uncacheable_latency::cpu1.data 150901.502616                       # average overall mshr uncacheable latency
system.l2c.overall_avg_mshr_uncacheable_latency::total 113817.101571                       # average overall mshr uncacheable latency
system.l2c.no_allocate_misses                       0                       # Number of misses that were no-allocate
system.membus.trans_dist::ReadReq               81378                       # Transaction distribution
system.membus.trans_dist::ReadResp             799663                       # Transaction distribution
system.membus.trans_dist::WriteReq              37997                       # Transaction distribution
system.membus.trans_dist::WriteResp             37997                       # Transaction distribution
system.membus.trans_dist::Writeback           1137767                       # Transaction distribution
system.membus.trans_dist::CleanEvict           200903                       # Transaction distribution
system.membus.trans_dist::UpgradeReq           374437                       # Transaction distribution
system.membus.trans_dist::SCUpgradeReq         306668                       # Transaction distribution
system.membus.trans_dist::UpgradeResp          111797                       # Transaction distribution
system.membus.trans_dist::SCUpgradeFailReq            3                       # Transaction distribution
system.membus.trans_dist::ReadExReq            646745                       # Transaction distribution
system.membus.trans_dist::ReadExResp           624605                       # Transaction distribution
system.membus.trans_dist::ReadSharedReq        718285                       # Transaction distribution
system.membus.trans_dist::InvalidateReq        106728                       # Transaction distribution
system.membus.trans_dist::InvalidateResp       106728                       # Transaction distribution
system.membus.pkt_count_system.l2c.mem_side::system.bridge.slave       122622                       # Packet count per connected master and slave (bytes)
system.membus.pkt_count_system.l2c.mem_side::system.realview.nvmem.port           92                       # Packet count per connected master and slave (bytes)
system.membus.pkt_count_system.l2c.mem_side::system.realview.gic.pio        24438                       # Packet count per connected master and slave (bytes)
system.membus.pkt_count_system.l2c.mem_side::system.physmem.port      4799197                       # Packet count per connected master and slave (bytes)
system.membus.pkt_count_system.l2c.mem_side::total      4946349                       # Packet count per connected master and slave (bytes)
system.membus.pkt_count_system.iocache.mem_side::system.physmem.port       342551                       # Packet count per connected master and slave (bytes)
system.membus.pkt_count_system.iocache.mem_side::total       342551                       # Packet count per connected master and slave (bytes)
system.membus.pkt_count::total                5288900                       # Packet count per connected master and slave (bytes)
system.membus.pkt_size_system.l2c.mem_side::system.bridge.slave       155729                       # Cumulative packet size per connected master and slave (bytes)
system.membus.pkt_size_system.l2c.mem_side::system.realview.nvmem.port          204                       # Cumulative packet size per connected master and slave (bytes)
system.membus.pkt_size_system.l2c.mem_side::system.realview.gic.pio        48876                       # Cumulative packet size per connected master and slave (bytes)
system.membus.pkt_size_system.l2c.mem_side::system.physmem.port    151511532                       # Cumulative packet size per connected master and slave (bytes)
system.membus.pkt_size_system.l2c.mem_side::total    151716341                       # Cumulative packet size per connected master and slave (bytes)
system.membus.pkt_size_system.iocache.mem_side::system.physmem.port      7266432                       # Cumulative packet size per connected master and slave (bytes)
system.membus.pkt_size_system.iocache.mem_side::total      7266432                       # Cumulative packet size per connected master and slave (bytes)
system.membus.pkt_size::total               158982773                       # Cumulative packet size per connected master and slave (bytes)
system.membus.snoops                           594252                       # Total snoops (count)
system.membus.snoop_fanout::samples           3613210                       # Request fanout histogram
system.membus.snoop_fanout::mean                    1                       # Request fanout histogram
system.membus.snoop_fanout::stdev                   0                       # Request fanout histogram
system.membus.snoop_fanout::underflows              0      0.00%      0.00% # Request fanout histogram
system.membus.snoop_fanout::0                       0      0.00%      0.00% # Request fanout histogram
system.membus.snoop_fanout::1                 3613210    100.00%    100.00% # Request fanout histogram
system.membus.snoop_fanout::2                       0      0.00%    100.00% # Request fanout histogram
system.membus.snoop_fanout::overflows               0      0.00%    100.00% # Request fanout histogram
system.membus.snoop_fanout::min_value               1                       # Request fanout histogram
system.membus.snoop_fanout::max_value               1                       # Request fanout histogram
system.membus.snoop_fanout::total             3613210                       # Request fanout histogram
system.membus.reqLayer0.occupancy           101221000                       # Layer occupancy (ticks)
system.membus.reqLayer0.utilization               0.0                       # Layer utilization (%)
system.membus.reqLayer1.occupancy               54500                       # Layer occupancy (ticks)
system.membus.reqLayer1.utilization               0.0                       # Layer utilization (%)
system.membus.reqLayer2.occupancy            21240500                       # Layer occupancy (ticks)
system.membus.reqLayer2.utilization               0.0                       # Layer utilization (%)
system.membus.reqLayer5.occupancy          7773596350                       # Layer occupancy (ticks)
system.membus.reqLayer5.utilization               0.0                       # Layer utilization (%)
system.membus.respLayer2.occupancy         7468178118                       # Layer occupancy (ticks)
system.membus.respLayer2.utilization              0.0                       # Layer utilization (%)
system.membus.respLayer3.occupancy          229090524                       # Layer occupancy (ticks)
system.membus.respLayer3.utilization              0.0                       # Layer utilization (%)
system.realview.ethernet.txBytes                  966                       # Bytes Transmitted
system.realview.ethernet.txPackets                  3                       # Number of Packets Transmitted
system.realview.ethernet.txIpChecksums              0                       # Number of tx IP Checksums done by device
system.realview.ethernet.txTcpChecksums             0                       # Number of tx TCP Checksums done by device
system.realview.ethernet.txUdpChecksums             0                       # Number of tx UDP Checksums done by device
system.realview.ethernet.descDMAReads               0                       # Number of descriptors the device read w/ DMA
system.realview.ethernet.descDMAWrites              0                       # Number of descriptors the device wrote w/ DMA
system.realview.ethernet.descDmaReadBytes            0                       # number of descriptor bytes read w/ DMA
system.realview.ethernet.descDmaWriteBytes            0                       # number of descriptor bytes write w/ DMA
system.realview.ethernet.totBandwidth             163                       # Total Bandwidth (bits/s)
system.realview.ethernet.totPackets                 3                       # Total Packets
system.realview.ethernet.totBytes                 966                       # Total Bytes
system.realview.ethernet.totPPS                     0                       # Total Tranmission Rate (packets/s)
system.realview.ethernet.txBandwidth              163                       # Transmit Bandwidth (bits/s)
system.realview.ethernet.txPPS                      0                       # Packet Tranmission Rate (packets/s)
system.realview.ethernet.postedSwi                  0                       # number of software interrupts posted to CPU
system.realview.ethernet.coalescedSwi               0                       # average number of Swi's coalesced into each post
system.realview.ethernet.totalSwi                   0                       # total number of Swi written to ISR
system.realview.ethernet.postedRxIdle               0                       # number of rxIdle interrupts posted to CPU
system.realview.ethernet.coalescedRxIdle            0                       # average number of RxIdle's coalesced into each post
system.realview.ethernet.totalRxIdle                0                       # total number of RxIdle written to ISR
system.realview.ethernet.postedRxOk                 0                       # number of RxOk interrupts posted to CPU
system.realview.ethernet.coalescedRxOk              0                       # average number of RxOk's coalesced into each post
system.realview.ethernet.totalRxOk                  0                       # total number of RxOk written to ISR
system.realview.ethernet.postedRxDesc               0                       # number of RxDesc interrupts posted to CPU
system.realview.ethernet.coalescedRxDesc            0                       # average number of RxDesc's coalesced into each post
system.realview.ethernet.totalRxDesc                0                       # total number of RxDesc written to ISR
system.realview.ethernet.postedTxOk                 0                       # number of TxOk interrupts posted to CPU
system.realview.ethernet.coalescedTxOk              0                       # average number of TxOk's coalesced into each post
system.realview.ethernet.totalTxOk                  0                       # total number of TxOk written to ISR
system.realview.ethernet.postedTxIdle               0                       # number of TxIdle interrupts posted to CPU
system.realview.ethernet.coalescedTxIdle            0                       # average number of TxIdle's coalesced into each post
system.realview.ethernet.totalTxIdle                0                       # total number of TxIdle written to ISR
system.realview.ethernet.postedTxDesc               0                       # number of TxDesc interrupts posted to CPU
system.realview.ethernet.coalescedTxDesc            0                       # average number of TxDesc's coalesced into each post
system.realview.ethernet.totalTxDesc                0                       # total number of TxDesc written to ISR
system.realview.ethernet.postedRxOrn                0                       # number of RxOrn posted to CPU
system.realview.ethernet.coalescedRxOrn             0                       # average number of RxOrn's coalesced into each post
system.realview.ethernet.totalRxOrn                 0                       # total number of RxOrn written to ISR
system.realview.ethernet.coalescedTotal             0                       # average number of interrupts coalesced into each post
system.realview.ethernet.postedInterrupts           13                       # number of posts to CPU
system.realview.ethernet.droppedPackets             0                       # number of packets dropped
system.toL2Bus.trans_dist::ReadReq              81380                       # Transaction distribution
system.toL2Bus.trans_dist::ReadResp           4075375                       # Transaction distribution
system.toL2Bus.trans_dist::WriteReq             37997                       # Transaction distribution
system.toL2Bus.trans_dist::WriteResp            37997                       # Transaction distribution
system.toL2Bus.trans_dist::Writeback          3377178                       # Transaction distribution
system.toL2Bus.trans_dist::CleanEvict         1228761                       # Transaction distribution
system.toL2Bus.trans_dist::UpgradeReq          423594                       # Transaction distribution
system.toL2Bus.trans_dist::SCUpgradeReq        317776                       # Transaction distribution
system.toL2Bus.trans_dist::UpgradeResp         741370                       # Transaction distribution
system.toL2Bus.trans_dist::SCUpgradeFailReq           96                       # Transaction distribution
system.toL2Bus.trans_dist::UpgradeFailResp           96                       # Transaction distribution
system.toL2Bus.trans_dist::ReadExReq          1071890                       # Transaction distribution
system.toL2Bus.trans_dist::ReadExResp         1071890                       # Transaction distribution
system.toL2Bus.trans_dist::ReadSharedReq      4001246                       # Transaction distribution
system.toL2Bus.trans_dist::InvalidateReq       106728                       # Transaction distribution
system.toL2Bus.pkt_count_system.cpu0.l2cache.mem_side::system.l2c.cpu_side      7774731                       # Packet count per connected master and slave (bytes)
system.toL2Bus.pkt_count_system.cpu1.l2cache.mem_side::system.l2c.cpu_side      5765311                       # Packet count per connected master and slave (bytes)
system.toL2Bus.pkt_count::total              13540042                       # Packet count per connected master and slave (bytes)
system.toL2Bus.pkt_size_system.cpu0.l2cache.mem_side::system.l2c.cpu_side    240674354                       # Cumulative packet size per connected master and slave (bytes)
system.toL2Bus.pkt_size_system.cpu1.l2cache.mem_side::system.l2c.cpu_side    168156931                       # Cumulative packet size per connected master and slave (bytes)
system.toL2Bus.pkt_size::total              408831285                       # Cumulative packet size per connected master and slave (bytes)
system.toL2Bus.snoops                         3034988                       # Total snoops (count)
system.toL2Bus.snoop_fanout::samples         11680683                       # Request fanout histogram
system.toL2Bus.snoop_fanout::mean            1.131880                       # Request fanout histogram
system.toL2Bus.snoop_fanout::stdev           0.338360                       # Request fanout histogram
system.toL2Bus.snoop_fanout::underflows             0      0.00%      0.00% # Request fanout histogram
system.toL2Bus.snoop_fanout::0                      0      0.00%      0.00% # Request fanout histogram
system.toL2Bus.snoop_fanout::1               10140239     86.81%     86.81% # Request fanout histogram
system.toL2Bus.snoop_fanout::2                1540444     13.19%    100.00% # Request fanout histogram
system.toL2Bus.snoop_fanout::overflows              0      0.00%    100.00% # Request fanout histogram
system.toL2Bus.snoop_fanout::min_value              1                       # Request fanout histogram
system.toL2Bus.snoop_fanout::max_value              2                       # Request fanout histogram
system.toL2Bus.snoop_fanout::total           11680683                       # Request fanout histogram
system.toL2Bus.reqLayer0.occupancy         7606203373                       # Layer occupancy (ticks)
system.toL2Bus.reqLayer0.utilization              0.0                       # Layer utilization (%)
system.toL2Bus.snoopLayer0.occupancy          2481000                       # Layer occupancy (ticks)
system.toL2Bus.snoopLayer0.utilization            0.0                       # Layer utilization (%)
system.toL2Bus.respLayer0.occupancy        4538781481                       # Layer occupancy (ticks)
system.toL2Bus.respLayer0.utilization             0.0                       # Layer utilization (%)
system.toL2Bus.respLayer1.occupancy        3532073491                       # Layer occupancy (ticks)
system.toL2Bus.respLayer1.utilization             0.0                       # Layer utilization (%)

---------- End Simulation Statistics   ----------
