
---------- Begin Simulation Statistics ----------
sim_seconds                                 47.474700                       # Number of seconds simulated
sim_ticks                                47474700369500                       # Number of ticks simulated
final_tick                               47474700369500                       # Number of ticks from beginning of simulation (restored from checkpoints and never reset)
sim_freq                                 1000000000000                       # Frequency of simulated ticks
host_inst_rate                                 794386                       # Simulator instruction rate (inst/s)
host_op_rate                                   934446                       # Simulator op (including micro ops) rate (op/s)
host_tick_rate                            42775515400                       # Simulator tick rate (ticks/s)
host_mem_usage                                 715280                       # Number of bytes of host memory used
host_seconds                                  1109.86                       # Real time elapsed on the host
sim_insts                                   881655060                       # Number of instructions simulated
sim_ops                                    1037101350                       # Number of ops (including micro ops) simulated
system.voltage_domain.voltage                       1                       # Voltage in Volts
system.clk_domain.clock                          1000                       # Clock period in ticks
system.physmem.bytes_read::cpu0.dtb.walker       127360                       # Number of bytes read from this memory
system.physmem.bytes_read::cpu0.itb.walker       143744                       # Number of bytes read from this memory
system.physmem.bytes_read::cpu0.inst          3459124                       # Number of bytes read from this memory
system.physmem.bytes_read::cpu0.data         40376840                       # Number of bytes read from this memory
system.physmem.bytes_read::cpu0.l2cache.prefetcher     12078528                       # Number of bytes read from this memory
system.physmem.bytes_read::cpu1.dtb.walker        91584                       # Number of bytes read from this memory
system.physmem.bytes_read::cpu1.itb.walker        86464                       # Number of bytes read from this memory
system.physmem.bytes_read::cpu1.inst          2488056                       # Number of bytes read from this memory
system.physmem.bytes_read::cpu1.data         17058000                       # Number of bytes read from this memory
system.physmem.bytes_read::cpu1.l2cache.prefetcher     14991744                       # Number of bytes read from this memory
system.physmem.bytes_read::realview.ide        410816                       # Number of bytes read from this memory
system.physmem.bytes_read::total             91312260                       # Number of bytes read from this memory
system.physmem.bytes_inst_read::cpu0.inst      3459124                       # Number of instructions bytes read from this memory
system.physmem.bytes_inst_read::cpu1.inst      2488056                       # Number of instructions bytes read from this memory
system.physmem.bytes_inst_read::total         5947180                       # Number of instructions bytes read from this memory
system.physmem.bytes_written::writebacks     77042688                       # Number of bytes written to this memory
system.physmem.bytes_written::cpu0.data         20580                       # Number of bytes written to this memory
system.physmem.bytes_written::cpu1.data             4                       # Number of bytes written to this memory
system.physmem.bytes_written::total          77063272                       # Number of bytes written to this memory
system.physmem.num_reads::cpu0.dtb.walker         1990                       # Number of read requests responded to by this memory
system.physmem.num_reads::cpu0.itb.walker         2246                       # Number of read requests responded to by this memory
system.physmem.num_reads::cpu0.inst             94456                       # Number of read requests responded to by this memory
system.physmem.num_reads::cpu0.data            630901                       # Number of read requests responded to by this memory
system.physmem.num_reads::cpu0.l2cache.prefetcher       188727                       # Number of read requests responded to by this memory
system.physmem.num_reads::cpu1.dtb.walker         1431                       # Number of read requests responded to by this memory
system.physmem.num_reads::cpu1.itb.walker         1351                       # Number of read requests responded to by this memory
system.physmem.num_reads::cpu1.inst             38964                       # Number of read requests responded to by this memory
system.physmem.num_reads::cpu1.data            266544                       # Number of read requests responded to by this memory
system.physmem.num_reads::cpu1.l2cache.prefetcher       234246                       # Number of read requests responded to by this memory
system.physmem.num_reads::realview.ide           6419                       # Number of read requests responded to by this memory
system.physmem.num_reads::total               1467275                       # Number of read requests responded to by this memory
system.physmem.num_writes::writebacks         1203792                       # Number of write requests responded to by this memory
system.physmem.num_writes::cpu0.data             2573                       # Number of write requests responded to by this memory
system.physmem.num_writes::cpu1.data                1                       # Number of write requests responded to by this memory
system.physmem.num_writes::total              1206366                       # Number of write requests responded to by this memory
system.physmem.bw_read::cpu0.dtb.walker          2683                       # Total read bandwidth from this memory (bytes/s)
system.physmem.bw_read::cpu0.itb.walker          3028                       # Total read bandwidth from this memory (bytes/s)
system.physmem.bw_read::cpu0.inst               72862                       # Total read bandwidth from this memory (bytes/s)
system.physmem.bw_read::cpu0.data              850492                       # Total read bandwidth from this memory (bytes/s)
system.physmem.bw_read::cpu0.l2cache.prefetcher       254420                       # Total read bandwidth from this memory (bytes/s)
system.physmem.bw_read::cpu1.dtb.walker          1929                       # Total read bandwidth from this memory (bytes/s)
system.physmem.bw_read::cpu1.itb.walker          1821                       # Total read bandwidth from this memory (bytes/s)
system.physmem.bw_read::cpu1.inst               52408                       # Total read bandwidth from this memory (bytes/s)
system.physmem.bw_read::cpu1.data              359307                       # Total read bandwidth from this memory (bytes/s)
system.physmem.bw_read::cpu1.l2cache.prefetcher       315784                       # Total read bandwidth from this memory (bytes/s)
system.physmem.bw_read::realview.ide             8653                       # Total read bandwidth from this memory (bytes/s)
system.physmem.bw_read::total                 1923388                       # Total read bandwidth from this memory (bytes/s)
system.physmem.bw_inst_read::cpu0.inst          72862                       # Instruction read bandwidth from this memory (bytes/s)
system.physmem.bw_inst_read::cpu1.inst          52408                       # Instruction read bandwidth from this memory (bytes/s)
system.physmem.bw_inst_read::total             125271                       # Instruction read bandwidth from this memory (bytes/s)
system.physmem.bw_write::writebacks           1622816                       # Write bandwidth from this memory (bytes/s)
system.physmem.bw_write::cpu0.data                433                       # Write bandwidth from this memory (bytes/s)
system.physmem.bw_write::cpu1.data                  0                       # Write bandwidth from this memory (bytes/s)
system.physmem.bw_write::total                1623249                       # Write bandwidth from this memory (bytes/s)
system.physmem.bw_total::writebacks           1622816                       # Total bandwidth to/from this memory (bytes/s)
system.physmem.bw_total::cpu0.dtb.walker         2683                       # Total bandwidth to/from this memory (bytes/s)
system.physmem.bw_total::cpu0.itb.walker         3028                       # Total bandwidth to/from this memory (bytes/s)
system.physmem.bw_total::cpu0.inst              72862                       # Total bandwidth to/from this memory (bytes/s)
system.physmem.bw_total::cpu0.data             850925                       # Total bandwidth to/from this memory (bytes/s)
system.physmem.bw_total::cpu0.l2cache.prefetcher       254420                       # Total bandwidth to/from this memory (bytes/s)
system.physmem.bw_total::cpu1.dtb.walker         1929                       # Total bandwidth to/from this memory (bytes/s)
system.physmem.bw_total::cpu1.itb.walker         1821                       # Total bandwidth to/from this memory (bytes/s)
system.physmem.bw_total::cpu1.inst              52408                       # Total bandwidth to/from this memory (bytes/s)
system.physmem.bw_total::cpu1.data             359307                       # Total bandwidth to/from this memory (bytes/s)
system.physmem.bw_total::cpu1.l2cache.prefetcher       315784                       # Total bandwidth to/from this memory (bytes/s)
system.physmem.bw_total::realview.ide            8653                       # Total bandwidth to/from this memory (bytes/s)
system.physmem.bw_total::total                3546637                       # Total bandwidth to/from this memory (bytes/s)
system.physmem.readReqs                       1467275                       # Number of read requests accepted
system.physmem.writeReqs                      1206366                       # Number of write requests accepted
system.physmem.readBursts                     1467275                       # Number of DRAM read bursts, including those serviced by the write queue
system.physmem.writeBursts                    1206366                       # Number of DRAM write bursts, including those merged in the write queue
system.physmem.bytesReadDRAM                 93873920                       # Total number of bytes read from DRAM
system.physmem.bytesReadWrQ                     31680                       # Total number of bytes read from write queue
system.physmem.bytesWritten                  77062336                       # Total number of bytes written to DRAM
system.physmem.bytesReadSys                  91312260                       # Total read bytes from the system interface side
system.physmem.bytesWrittenSys               77063272                       # Total written bytes from the system interface side
system.physmem.servicedByWrQ                      495                       # Number of DRAM read bursts serviced by the write queue
system.physmem.mergedWrBursts                    2246                       # Number of DRAM write bursts merged with an existing one
system.physmem.neitherReadNorWriteReqs         220616                       # Number of requests that are neither read nor write
system.physmem.perBankRdBursts::0               87562                       # Per bank write bursts
system.physmem.perBankRdBursts::1               88840                       # Per bank write bursts
system.physmem.perBankRdBursts::2               82797                       # Per bank write bursts
system.physmem.perBankRdBursts::3               92927                       # Per bank write bursts
system.physmem.perBankRdBursts::4               90148                       # Per bank write bursts
system.physmem.perBankRdBursts::5               93986                       # Per bank write bursts
system.physmem.perBankRdBursts::6               87799                       # Per bank write bursts
system.physmem.perBankRdBursts::7               94269                       # Per bank write bursts
system.physmem.perBankRdBursts::8               90753                       # Per bank write bursts
system.physmem.perBankRdBursts::9              132105                       # Per bank write bursts
system.physmem.perBankRdBursts::10              81290                       # Per bank write bursts
system.physmem.perBankRdBursts::11              92144                       # Per bank write bursts
system.physmem.perBankRdBursts::12              81361                       # Per bank write bursts
system.physmem.perBankRdBursts::13              87555                       # Per bank write bursts
system.physmem.perBankRdBursts::14              92182                       # Per bank write bursts
system.physmem.perBankRdBursts::15              91062                       # Per bank write bursts
system.physmem.perBankWrBursts::0               71771                       # Per bank write bursts
system.physmem.perBankWrBursts::1               74672                       # Per bank write bursts
system.physmem.perBankWrBursts::2               72652                       # Per bank write bursts
system.physmem.perBankWrBursts::3               78055                       # Per bank write bursts
system.physmem.perBankWrBursts::4               74620                       # Per bank write bursts
system.physmem.perBankWrBursts::5               78875                       # Per bank write bursts
system.physmem.perBankWrBursts::6               73591                       # Per bank write bursts
system.physmem.perBankWrBursts::7               76891                       # Per bank write bursts
system.physmem.perBankWrBursts::8               77107                       # Per bank write bursts
system.physmem.perBankWrBursts::9               78277                       # Per bank write bursts
system.physmem.perBankWrBursts::10              71128                       # Per bank write bursts
system.physmem.perBankWrBursts::11              78119                       # Per bank write bursts
system.physmem.perBankWrBursts::12              70456                       # Per bank write bursts
system.physmem.perBankWrBursts::13              74533                       # Per bank write bursts
system.physmem.perBankWrBursts::14              76600                       # Per bank write bursts
system.physmem.perBankWrBursts::15              76752                       # Per bank write bursts
system.physmem.numRdRetry                           0                       # Number of times read queue was full causing retry
system.physmem.numWrRetry                          39                       # Number of times write queue was full causing retry
system.physmem.totGap                    47474697259000                       # Total gap between requests
system.physmem.readPktSize::0                       0                       # Read request sizes (log2)
system.physmem.readPktSize::1                       0                       # Read request sizes (log2)
system.physmem.readPktSize::2                   43195                       # Read request sizes (log2)
system.physmem.readPktSize::3                      25                       # Read request sizes (log2)
system.physmem.readPktSize::4                       5                       # Read request sizes (log2)
system.physmem.readPktSize::5                       0                       # Read request sizes (log2)
system.physmem.readPktSize::6                 1424050                       # Read request sizes (log2)
system.physmem.writePktSize::0                      0                       # Write request sizes (log2)
system.physmem.writePktSize::1                      0                       # Write request sizes (log2)
system.physmem.writePktSize::2                      2                       # Write request sizes (log2)
system.physmem.writePktSize::3                   2572                       # Write request sizes (log2)
system.physmem.writePktSize::4                      0                       # Write request sizes (log2)
system.physmem.writePktSize::5                      0                       # Write request sizes (log2)
system.physmem.writePktSize::6                1203792                       # Write request sizes (log2)
system.physmem.rdQLenPdf::0                   1195881                       # What read queue length does an incoming req see
system.physmem.rdQLenPdf::1                     91231                       # What read queue length does an incoming req see
system.physmem.rdQLenPdf::2                     37643                       # What read queue length does an incoming req see
system.physmem.rdQLenPdf::3                     32050                       # What read queue length does an incoming req see
system.physmem.rdQLenPdf::4                     26760                       # What read queue length does an incoming req see
system.physmem.rdQLenPdf::5                     23675                       # What read queue length does an incoming req see
system.physmem.rdQLenPdf::6                     20974                       # What read queue length does an incoming req see
system.physmem.rdQLenPdf::7                     18326                       # What read queue length does an incoming req see
system.physmem.rdQLenPdf::8                     14619                       # What read queue length does an incoming req see
system.physmem.rdQLenPdf::9                      2367                       # What read queue length does an incoming req see
system.physmem.rdQLenPdf::10                      941                       # What read queue length does an incoming req see
system.physmem.rdQLenPdf::11                      584                       # What read queue length does an incoming req see
system.physmem.rdQLenPdf::12                      447                       # What read queue length does an incoming req see
system.physmem.rdQLenPdf::13                      348                       # What read queue length does an incoming req see
system.physmem.rdQLenPdf::14                      253                       # What read queue length does an incoming req see
system.physmem.rdQLenPdf::15                      224                       # What read queue length does an incoming req see
system.physmem.rdQLenPdf::16                      179                       # What read queue length does an incoming req see
system.physmem.rdQLenPdf::17                      139                       # What read queue length does an incoming req see
system.physmem.rdQLenPdf::18                       76                       # What read queue length does an incoming req see
system.physmem.rdQLenPdf::19                       51                       # What read queue length does an incoming req see
system.physmem.rdQLenPdf::20                        6                       # What read queue length does an incoming req see
system.physmem.rdQLenPdf::21                        2                       # What read queue length does an incoming req see
system.physmem.rdQLenPdf::22                        2                       # What read queue length does an incoming req see
system.physmem.rdQLenPdf::23                        2                       # What read queue length does an incoming req see
system.physmem.rdQLenPdf::24                        0                       # What read queue length does an incoming req see
system.physmem.rdQLenPdf::25                        0                       # What read queue length does an incoming req see
system.physmem.rdQLenPdf::26                        0                       # What read queue length does an incoming req see
system.physmem.rdQLenPdf::27                        0                       # What read queue length does an incoming req see
system.physmem.rdQLenPdf::28                        0                       # What read queue length does an incoming req see
system.physmem.rdQLenPdf::29                        0                       # What read queue length does an incoming req see
system.physmem.rdQLenPdf::30                        0                       # What read queue length does an incoming req see
system.physmem.rdQLenPdf::31                        0                       # What read queue length does an incoming req see
system.physmem.wrQLenPdf::0                         1                       # What write queue length does an incoming req see
system.physmem.wrQLenPdf::1                         1                       # What write queue length does an incoming req see
system.physmem.wrQLenPdf::2                         1                       # What write queue length does an incoming req see
system.physmem.wrQLenPdf::3                         1                       # What write queue length does an incoming req see
system.physmem.wrQLenPdf::4                         1                       # What write queue length does an incoming req see
system.physmem.wrQLenPdf::5                         1                       # What write queue length does an incoming req see
system.physmem.wrQLenPdf::6                         1                       # What write queue length does an incoming req see
system.physmem.wrQLenPdf::7                         1                       # What write queue length does an incoming req see
system.physmem.wrQLenPdf::8                         1                       # What write queue length does an incoming req see
system.physmem.wrQLenPdf::9                         1                       # What write queue length does an incoming req see
system.physmem.wrQLenPdf::10                        1                       # What write queue length does an incoming req see
system.physmem.wrQLenPdf::11                        1                       # What write queue length does an incoming req see
system.physmem.wrQLenPdf::12                        1                       # What write queue length does an incoming req see
system.physmem.wrQLenPdf::13                        1                       # What write queue length does an incoming req see
system.physmem.wrQLenPdf::14                        1                       # What write queue length does an incoming req see
system.physmem.wrQLenPdf::15                    18047                       # What write queue length does an incoming req see
system.physmem.wrQLenPdf::16                    20216                       # What write queue length does an incoming req see
system.physmem.wrQLenPdf::17                    49731                       # What write queue length does an incoming req see
system.physmem.wrQLenPdf::18                    58137                       # What write queue length does an incoming req see
system.physmem.wrQLenPdf::19                    63836                       # What write queue length does an incoming req see
system.physmem.wrQLenPdf::20                    67727                       # What write queue length does an incoming req see
system.physmem.wrQLenPdf::21                    72112                       # What write queue length does an incoming req see
system.physmem.wrQLenPdf::22                    73557                       # What write queue length does an incoming req see
system.physmem.wrQLenPdf::23                    75338                       # What write queue length does an incoming req see
system.physmem.wrQLenPdf::24                    76158                       # What write queue length does an incoming req see
system.physmem.wrQLenPdf::25                    77610                       # What write queue length does an incoming req see
system.physmem.wrQLenPdf::26                    81366                       # What write queue length does an incoming req see
system.physmem.wrQLenPdf::27                    78544                       # What write queue length does an incoming req see
system.physmem.wrQLenPdf::28                    78356                       # What write queue length does an incoming req see
system.physmem.wrQLenPdf::29                    81800                       # What write queue length does an incoming req see
system.physmem.wrQLenPdf::30                    76571                       # What write queue length does an incoming req see
system.physmem.wrQLenPdf::31                    72953                       # What write queue length does an incoming req see
system.physmem.wrQLenPdf::32                    70532                       # What write queue length does an incoming req see
system.physmem.wrQLenPdf::33                     1899                       # What write queue length does an incoming req see
system.physmem.wrQLenPdf::34                     1287                       # What write queue length does an incoming req see
system.physmem.wrQLenPdf::35                      892                       # What write queue length does an incoming req see
system.physmem.wrQLenPdf::36                      734                       # What write queue length does an incoming req see
system.physmem.wrQLenPdf::37                      591                       # What write queue length does an incoming req see
system.physmem.wrQLenPdf::38                      574                       # What write queue length does an incoming req see
system.physmem.wrQLenPdf::39                      375                       # What write queue length does an incoming req see
system.physmem.wrQLenPdf::40                      376                       # What write queue length does an incoming req see
system.physmem.wrQLenPdf::41                      370                       # What write queue length does an incoming req see
system.physmem.wrQLenPdf::42                      352                       # What write queue length does an incoming req see
system.physmem.wrQLenPdf::43                      359                       # What write queue length does an incoming req see
system.physmem.wrQLenPdf::44                      330                       # What write queue length does an incoming req see
system.physmem.wrQLenPdf::45                      302                       # What write queue length does an incoming req see
system.physmem.wrQLenPdf::46                      264                       # What write queue length does an incoming req see
system.physmem.wrQLenPdf::47                      300                       # What write queue length does an incoming req see
system.physmem.wrQLenPdf::48                      285                       # What write queue length does an incoming req see
system.physmem.wrQLenPdf::49                      268                       # What write queue length does an incoming req see
system.physmem.wrQLenPdf::50                      246                       # What write queue length does an incoming req see
system.physmem.wrQLenPdf::51                      182                       # What write queue length does an incoming req see
system.physmem.wrQLenPdf::52                      185                       # What write queue length does an incoming req see
system.physmem.wrQLenPdf::53                      190                       # What write queue length does an incoming req see
system.physmem.wrQLenPdf::54                      176                       # What write queue length does an incoming req see
system.physmem.wrQLenPdf::55                      117                       # What write queue length does an incoming req see
system.physmem.wrQLenPdf::56                      135                       # What write queue length does an incoming req see
system.physmem.wrQLenPdf::57                      118                       # What write queue length does an incoming req see
system.physmem.wrQLenPdf::58                      114                       # What write queue length does an incoming req see
system.physmem.wrQLenPdf::59                      107                       # What write queue length does an incoming req see
system.physmem.wrQLenPdf::60                       89                       # What write queue length does an incoming req see
system.physmem.wrQLenPdf::61                      111                       # What write queue length does an incoming req see
system.physmem.wrQLenPdf::62                       79                       # What write queue length does an incoming req see
system.physmem.wrQLenPdf::63                      107                       # What write queue length does an incoming req see
system.physmem.bytesPerActivate::samples       940579                       # Bytes accessed per row activation
system.physmem.bytesPerActivate::mean      181.734800                       # Bytes accessed per row activation
system.physmem.bytesPerActivate::gmean     113.091903                       # Bytes accessed per row activation
system.physmem.bytesPerActivate::stdev     237.596263                       # Bytes accessed per row activation
system.physmem.bytesPerActivate::0-127         569137     60.51%     60.51% # Bytes accessed per row activation
system.physmem.bytesPerActivate::128-255       185879     19.76%     80.27% # Bytes accessed per row activation
system.physmem.bytesPerActivate::256-383        61156      6.50%     86.77% # Bytes accessed per row activation
system.physmem.bytesPerActivate::384-511        31438      3.34%     90.12% # Bytes accessed per row activation
system.physmem.bytesPerActivate::512-639        21576      2.29%     92.41% # Bytes accessed per row activation
system.physmem.bytesPerActivate::640-767        13250      1.41%     93.82% # Bytes accessed per row activation
system.physmem.bytesPerActivate::768-895         9973      1.06%     94.88% # Bytes accessed per row activation
system.physmem.bytesPerActivate::896-1023         9805      1.04%     95.92% # Bytes accessed per row activation
system.physmem.bytesPerActivate::1024-1151        38365      4.08%    100.00% # Bytes accessed per row activation
system.physmem.bytesPerActivate::total         940579                       # Bytes accessed per row activation
system.physmem.rdPerTurnAround::samples         68336                       # Reads before turning the bus around for writes
system.physmem.rdPerTurnAround::mean        21.464104                       # Reads before turning the bus around for writes
system.physmem.rdPerTurnAround::stdev      309.922160                       # Reads before turning the bus around for writes
system.physmem.rdPerTurnAround::0-4095          68334    100.00%    100.00% # Reads before turning the bus around for writes
system.physmem.rdPerTurnAround::20480-24575            1      0.00%    100.00% # Reads before turning the bus around for writes
system.physmem.rdPerTurnAround::77824-81919            1      0.00%    100.00% # Reads before turning the bus around for writes
system.physmem.rdPerTurnAround::total           68336                       # Reads before turning the bus around for writes
system.physmem.wrPerTurnAround::samples         68336                       # Writes before turning the bus around for reads
system.physmem.wrPerTurnAround::mean        17.620273                       # Writes before turning the bus around for reads
system.physmem.wrPerTurnAround::gmean       17.104093                       # Writes before turning the bus around for reads
system.physmem.wrPerTurnAround::stdev        6.841865                       # Writes before turning the bus around for reads
system.physmem.wrPerTurnAround::16-19           64690     94.66%     94.66% # Writes before turning the bus around for reads
system.physmem.wrPerTurnAround::20-23            1540      2.25%     96.92% # Writes before turning the bus around for reads
system.physmem.wrPerTurnAround::24-27             239      0.35%     97.27% # Writes before turning the bus around for reads
system.physmem.wrPerTurnAround::28-31             282      0.41%     97.68% # Writes before turning the bus around for reads
system.physmem.wrPerTurnAround::32-35              82      0.12%     97.80% # Writes before turning the bus around for reads
system.physmem.wrPerTurnAround::36-39             291      0.43%     98.23% # Writes before turning the bus around for reads
system.physmem.wrPerTurnAround::40-43             162      0.24%     98.46% # Writes before turning the bus around for reads
system.physmem.wrPerTurnAround::44-47              86      0.13%     98.59% # Writes before turning the bus around for reads
system.physmem.wrPerTurnAround::48-51              81      0.12%     98.71% # Writes before turning the bus around for reads
system.physmem.wrPerTurnAround::52-55             117      0.17%     98.88% # Writes before turning the bus around for reads
system.physmem.wrPerTurnAround::56-59              30      0.04%     98.92% # Writes before turning the bus around for reads
system.physmem.wrPerTurnAround::60-63              46      0.07%     98.99% # Writes before turning the bus around for reads
system.physmem.wrPerTurnAround::64-67             391      0.57%     99.56% # Writes before turning the bus around for reads
system.physmem.wrPerTurnAround::68-71              42      0.06%     99.62% # Writes before turning the bus around for reads
system.physmem.wrPerTurnAround::72-75              42      0.06%     99.69% # Writes before turning the bus around for reads
system.physmem.wrPerTurnAround::76-79             142      0.21%     99.89% # Writes before turning the bus around for reads
system.physmem.wrPerTurnAround::80-83              21      0.03%     99.92% # Writes before turning the bus around for reads
system.physmem.wrPerTurnAround::84-87               2      0.00%     99.93% # Writes before turning the bus around for reads
system.physmem.wrPerTurnAround::88-91               1      0.00%     99.93% # Writes before turning the bus around for reads
system.physmem.wrPerTurnAround::92-95               3      0.00%     99.93% # Writes before turning the bus around for reads
system.physmem.wrPerTurnAround::100-103             7      0.01%     99.94% # Writes before turning the bus around for reads
system.physmem.wrPerTurnAround::116-119             2      0.00%     99.95% # Writes before turning the bus around for reads
system.physmem.wrPerTurnAround::124-127             3      0.00%     99.95% # Writes before turning the bus around for reads
system.physmem.wrPerTurnAround::128-131            20      0.03%     99.98% # Writes before turning the bus around for reads
system.physmem.wrPerTurnAround::136-139             1      0.00%     99.98% # Writes before turning the bus around for reads
system.physmem.wrPerTurnAround::140-143             1      0.00%     99.98% # Writes before turning the bus around for reads
system.physmem.wrPerTurnAround::148-151             1      0.00%     99.98% # Writes before turning the bus around for reads
system.physmem.wrPerTurnAround::152-155             2      0.00%     99.99% # Writes before turning the bus around for reads
system.physmem.wrPerTurnAround::156-159             4      0.01%     99.99% # Writes before turning the bus around for reads
system.physmem.wrPerTurnAround::164-167             3      0.00%    100.00% # Writes before turning the bus around for reads
system.physmem.wrPerTurnAround::180-183             1      0.00%    100.00% # Writes before turning the bus around for reads
system.physmem.wrPerTurnAround::200-203             1      0.00%    100.00% # Writes before turning the bus around for reads
system.physmem.wrPerTurnAround::total           68336                       # Writes before turning the bus around for reads
system.physmem.totQLat                    37142962355                       # Total ticks spent queuing
system.physmem.totMemAccLat               64645087355                       # Total ticks spent from burst creation until serviced by the DRAM
system.physmem.totBusLat                   7333900000                       # Total ticks spent in databus transfers
system.physmem.avgQLat                       25322.79                       # Average queueing delay per DRAM burst
system.physmem.avgBusLat                      5000.00                       # Average bus latency per DRAM burst
system.physmem.avgMemAccLat                  44072.79                       # Average memory access latency per DRAM burst
system.physmem.avgRdBW                           1.98                       # Average DRAM read bandwidth in MiByte/s
system.physmem.avgWrBW                           1.62                       # Average achieved write bandwidth in MiByte/s
system.physmem.avgRdBWSys                        1.92                       # Average system read bandwidth in MiByte/s
system.physmem.avgWrBWSys                        1.62                       # Average system write bandwidth in MiByte/s
system.physmem.peakBW                        12800.00                       # Theoretical peak bandwidth in MiByte/s
system.physmem.busUtil                           0.03                       # Data bus utilization in percentage
system.physmem.busUtilRead                       0.02                       # Data bus utilization in percentage for reads
system.physmem.busUtilWrite                      0.01                       # Data bus utilization in percentage for writes
system.physmem.avgRdQLen                         1.09                       # Average read queue length when enqueuing
system.physmem.avgWrQLen                        25.94                       # Average write queue length when enqueuing
system.physmem.readRowHits                    1168360                       # Number of row buffer hits during reads
system.physmem.writeRowHits                    561939                       # Number of row buffer hits during writes
system.physmem.readRowHitRate                   79.65                       # Row buffer hit rate for reads
system.physmem.writeRowHitRate                  46.67                       # Row buffer hit rate for writes
system.physmem.avgGap                     17756571.38                       # Average gap between requests
system.physmem.pageHitRate                      64.78                       # Row buffer hit rate, read and write combined
system.physmem_0.actEnergy                 3585949920                       # Energy for activate commands per rank (pJ)
system.physmem_0.preEnergy                 1956619500                       # Energy for precharge commands per rank (pJ)
system.physmem_0.readEnergy                5602958400                       # Energy for read commands per rank (pJ)
system.physmem_0.writeEnergy               3895302960                       # Energy for write commands per rank (pJ)
system.physmem_0.refreshEnergy           3100816442880                       # Energy for refresh commands per rank (pJ)
system.physmem_0.actBackEnergy           1230768339570                       # Energy for active background per rank (pJ)
system.physmem_0.preBackEnergy           27405197149500                       # Energy for precharge background per rank (pJ)
system.physmem_0.totalEnergy             31751822762730                       # Total energy per rank (pJ)
system.physmem_0.averagePower              668.815694                       # Core power per rank (mW)
system.physmem_0.memoryStateTime::IDLE   45589938065590                       # Time in different power states
system.physmem_0.memoryStateTime::REF    1585284480000                       # Time in different power states
system.physmem_0.memoryStateTime::PRE_PDN            0                       # Time in different power states
system.physmem_0.memoryStateTime::ACT    299474968160                       # Time in different power states
system.physmem_0.memoryStateTime::ACT_PDN            0                       # Time in different power states
system.physmem_1.actEnergy                 3524827320                       # Energy for activate commands per rank (pJ)
system.physmem_1.preEnergy                 1923268875                       # Energy for precharge commands per rank (pJ)
system.physmem_1.readEnergy                5837886600                       # Energy for read commands per rank (pJ)
system.physmem_1.writeEnergy               3907258560                       # Energy for write commands per rank (pJ)
system.physmem_1.refreshEnergy           3100816442880                       # Energy for refresh commands per rank (pJ)
system.physmem_1.actBackEnergy           1224297828675                       # Energy for active background per rank (pJ)
system.physmem_1.preBackEnergy           27410873036250                       # Energy for precharge background per rank (pJ)
system.physmem_1.totalEnergy             31751180549160                       # Total energy per rank (pJ)
system.physmem_1.averagePower              668.802167                       # Core power per rank (mW)
system.physmem_1.memoryStateTime::IDLE   45599398366763                       # Time in different power states
system.physmem_1.memoryStateTime::REF    1585284480000                       # Time in different power states
system.physmem_1.memoryStateTime::PRE_PDN            0                       # Time in different power states
system.physmem_1.memoryStateTime::ACT    290016828237                       # Time in different power states
system.physmem_1.memoryStateTime::ACT_PDN            0                       # Time in different power states
system.realview.nvmem.bytes_read::cpu0.inst           96                       # Number of bytes read from this memory
system.realview.nvmem.bytes_read::cpu0.data           36                       # Number of bytes read from this memory
system.realview.nvmem.bytes_read::cpu1.inst           64                       # Number of bytes read from this memory
system.realview.nvmem.bytes_read::cpu1.data            8                       # Number of bytes read from this memory
system.realview.nvmem.bytes_read::total           204                       # Number of bytes read from this memory
system.realview.nvmem.bytes_inst_read::cpu0.inst           96                       # Number of instructions bytes read from this memory
system.realview.nvmem.bytes_inst_read::cpu1.inst           64                       # Number of instructions bytes read from this memory
system.realview.nvmem.bytes_inst_read::total          160                       # Number of instructions bytes read from this memory
system.realview.nvmem.num_reads::cpu0.inst           24                       # Number of read requests responded to by this memory
system.realview.nvmem.num_reads::cpu0.data            5                       # Number of read requests responded to by this memory
system.realview.nvmem.num_reads::cpu1.inst           16                       # Number of read requests responded to by this memory
system.realview.nvmem.num_reads::cpu1.data            1                       # Number of read requests responded to by this memory
system.realview.nvmem.num_reads::total             46                       # Number of read requests responded to by this memory
system.realview.nvmem.bw_read::cpu0.inst            2                       # Total read bandwidth from this memory (bytes/s)
system.realview.nvmem.bw_read::cpu0.data            1                       # Total read bandwidth from this memory (bytes/s)
system.realview.nvmem.bw_read::cpu1.inst            1                       # Total read bandwidth from this memory (bytes/s)
system.realview.nvmem.bw_read::cpu1.data            0                       # Total read bandwidth from this memory (bytes/s)
system.realview.nvmem.bw_read::total                4                       # Total read bandwidth from this memory (bytes/s)
system.realview.nvmem.bw_inst_read::cpu0.inst            2                       # Instruction read bandwidth from this memory (bytes/s)
system.realview.nvmem.bw_inst_read::cpu1.inst            1                       # Instruction read bandwidth from this memory (bytes/s)
system.realview.nvmem.bw_inst_read::total            3                       # Instruction read bandwidth from this memory (bytes/s)
system.realview.nvmem.bw_total::cpu0.inst            2                       # Total bandwidth to/from this memory (bytes/s)
system.realview.nvmem.bw_total::cpu0.data            1                       # Total bandwidth to/from this memory (bytes/s)
system.realview.nvmem.bw_total::cpu1.inst            1                       # Total bandwidth to/from this memory (bytes/s)
system.realview.nvmem.bw_total::cpu1.data            0                       # Total bandwidth to/from this memory (bytes/s)
system.realview.nvmem.bw_total::total               4                       # Total bandwidth to/from this memory (bytes/s)
system.cf0.dma_read_full_pages                    122                       # Number of full page size DMA reads (not PRD).
system.cf0.dma_read_bytes                      499712                       # Number of bytes transfered via DMA reads (not PRD).
system.cf0.dma_read_txs                           122                       # Number of DMA read transactions (not PRD).
system.cf0.dma_write_full_pages                  1667                       # Number of full page size DMA writes.
system.cf0.dma_write_bytes                    6830592                       # Number of bytes transfered via DMA writes.
system.cf0.dma_write_txs                         1670                       # Number of DMA write transactions.
system.cpu_clk_domain.clock                       500                       # Clock period in ticks
system.cpu0.dstage2_mmu.stage2_tlb.walker.walks            0                       # Table walker walks requested
system.cpu0.dstage2_mmu.stage2_tlb.walker.walkRequestOrigin_Requested::Data            0                       # Table walker requests started/completed, data/inst
system.cpu0.dstage2_mmu.stage2_tlb.walker.walkRequestOrigin_Requested::Inst            0                       # Table walker requests started/completed, data/inst
system.cpu0.dstage2_mmu.stage2_tlb.walker.walkRequestOrigin_Requested::total            0                       # Table walker requests started/completed, data/inst
system.cpu0.dstage2_mmu.stage2_tlb.walker.walkRequestOrigin_Completed::Data            0                       # Table walker requests started/completed, data/inst
system.cpu0.dstage2_mmu.stage2_tlb.walker.walkRequestOrigin_Completed::Inst            0                       # Table walker requests started/completed, data/inst
system.cpu0.dstage2_mmu.stage2_tlb.walker.walkRequestOrigin_Completed::total            0                       # Table walker requests started/completed, data/inst
system.cpu0.dstage2_mmu.stage2_tlb.walker.walkRequestOrigin::total            0                       # Table walker requests started/completed, data/inst
system.cpu0.dstage2_mmu.stage2_tlb.inst_hits            0                       # ITB inst hits
system.cpu0.dstage2_mmu.stage2_tlb.inst_misses            0                       # ITB inst misses
system.cpu0.dstage2_mmu.stage2_tlb.read_hits            0                       # DTB read hits
system.cpu0.dstage2_mmu.stage2_tlb.read_misses            0                       # DTB read misses
system.cpu0.dstage2_mmu.stage2_tlb.write_hits            0                       # DTB write hits
system.cpu0.dstage2_mmu.stage2_tlb.write_misses            0                       # DTB write misses
system.cpu0.dstage2_mmu.stage2_tlb.flush_tlb            0                       # Number of times complete TLB was flushed
system.cpu0.dstage2_mmu.stage2_tlb.flush_tlb_mva            0                       # Number of times TLB was flushed by MVA
system.cpu0.dstage2_mmu.stage2_tlb.flush_tlb_mva_asid            0                       # Number of times TLB was flushed by MVA & ASID
system.cpu0.dstage2_mmu.stage2_tlb.flush_tlb_asid            0                       # Number of times TLB was flushed by ASID
system.cpu0.dstage2_mmu.stage2_tlb.flush_entries            0                       # Number of entries that have been flushed from TLB
system.cpu0.dstage2_mmu.stage2_tlb.align_faults            0                       # Number of TLB faults due to alignment restrictions
system.cpu0.dstage2_mmu.stage2_tlb.prefetch_faults            0                       # Number of TLB faults due to prefetch
system.cpu0.dstage2_mmu.stage2_tlb.domain_faults            0                       # Number of TLB faults due to domain restrictions
system.cpu0.dstage2_mmu.stage2_tlb.perms_faults            0                       # Number of TLB faults due to permissions restrictions
system.cpu0.dstage2_mmu.stage2_tlb.read_accesses            0                       # DTB read accesses
system.cpu0.dstage2_mmu.stage2_tlb.write_accesses            0                       # DTB write accesses
system.cpu0.dstage2_mmu.stage2_tlb.inst_accesses            0                       # ITB inst accesses
system.cpu0.dstage2_mmu.stage2_tlb.hits             0                       # DTB hits
system.cpu0.dstage2_mmu.stage2_tlb.misses            0                       # DTB misses
system.cpu0.dstage2_mmu.stage2_tlb.accesses            0                       # DTB accesses
system.cpu0.dtb.walker.walks                   101051                       # Table walker walks requested
system.cpu0.dtb.walker.walksLong               101051                       # Table walker walks initiated with long descriptors
system.cpu0.dtb.walker.walksLongTerminationLevel::Level2         8300                       # Level at which table walker walks with long descriptors terminate
system.cpu0.dtb.walker.walksLongTerminationLevel::Level3        78014                       # Level at which table walker walks with long descriptors terminate
system.cpu0.dtb.walker.walksSquashedBefore            7                       # Table walks squashed before starting
system.cpu0.dtb.walker.walkWaitTime::samples       101044                       # Table walker wait (enqueue to first request) latency
system.cpu0.dtb.walker.walkWaitTime::0         101044    100.00%    100.00% # Table walker wait (enqueue to first request) latency
system.cpu0.dtb.walker.walkWaitTime::total       101044                       # Table walker wait (enqueue to first request) latency
system.cpu0.dtb.walker.walkCompletionTime::samples        86321                       # Table walker service (enqueue to completion) latency
system.cpu0.dtb.walker.walkCompletionTime::mean 22610.900013                       # Table walker service (enqueue to completion) latency
system.cpu0.dtb.walker.walkCompletionTime::gmean 19675.452020                       # Table walker service (enqueue to completion) latency
system.cpu0.dtb.walker.walkCompletionTime::stdev 23315.454382                       # Table walker service (enqueue to completion) latency
system.cpu0.dtb.walker.walkCompletionTime::0-65535        84871     98.32%     98.32% # Table walker service (enqueue to completion) latency
system.cpu0.dtb.walker.walkCompletionTime::65536-131071          161      0.19%     98.51% # Table walker service (enqueue to completion) latency
system.cpu0.dtb.walker.walkCompletionTime::131072-196607         1103      1.28%     99.78% # Table walker service (enqueue to completion) latency
system.cpu0.dtb.walker.walkCompletionTime::196608-262143           41      0.05%     99.83% # Table walker service (enqueue to completion) latency
system.cpu0.dtb.walker.walkCompletionTime::262144-327679           57      0.07%     99.90% # Table walker service (enqueue to completion) latency
system.cpu0.dtb.walker.walkCompletionTime::327680-393215           25      0.03%     99.93% # Table walker service (enqueue to completion) latency
system.cpu0.dtb.walker.walkCompletionTime::393216-458751           42      0.05%     99.98% # Table walker service (enqueue to completion) latency
system.cpu0.dtb.walker.walkCompletionTime::458752-524287           13      0.02%     99.99% # Table walker service (enqueue to completion) latency
system.cpu0.dtb.walker.walkCompletionTime::524288-589823            3      0.00%     99.99% # Table walker service (enqueue to completion) latency
system.cpu0.dtb.walker.walkCompletionTime::655360-720895            4      0.00%    100.00% # Table walker service (enqueue to completion) latency
system.cpu0.dtb.walker.walkCompletionTime::720896-786431            1      0.00%    100.00% # Table walker service (enqueue to completion) latency
system.cpu0.dtb.walker.walkCompletionTime::total        86321                       # Table walker service (enqueue to completion) latency
system.cpu0.dtb.walker.walksPending::samples   1368339312                       # Table walker pending requests distribution
system.cpu0.dtb.walker.walksPending::mean    -0.519630                       # Table walker pending requests distribution
system.cpu0.dtb.walker.walksPending::0     2079369704    151.96%    151.96% # Table walker pending requests distribution
system.cpu0.dtb.walker.walksPending::1     -711030392    -51.96%    100.00% # Table walker pending requests distribution
system.cpu0.dtb.walker.walksPending::total   1368339312                       # Table walker pending requests distribution
system.cpu0.dtb.walker.walkPageSizes::4K        78015     90.38%     90.38% # Table walker page sizes translated
system.cpu0.dtb.walker.walkPageSizes::2M         8300      9.62%    100.00% # Table walker page sizes translated
system.cpu0.dtb.walker.walkPageSizes::total        86315                       # Table walker page sizes translated
system.cpu0.dtb.walker.walkRequestOrigin_Requested::Data       101051                       # Table walker requests started/completed, data/inst
system.cpu0.dtb.walker.walkRequestOrigin_Requested::Inst            0                       # Table walker requests started/completed, data/inst
system.cpu0.dtb.walker.walkRequestOrigin_Requested::total       101051                       # Table walker requests started/completed, data/inst
system.cpu0.dtb.walker.walkRequestOrigin_Completed::Data        86315                       # Table walker requests started/completed, data/inst
system.cpu0.dtb.walker.walkRequestOrigin_Completed::Inst            0                       # Table walker requests started/completed, data/inst
system.cpu0.dtb.walker.walkRequestOrigin_Completed::total        86315                       # Table walker requests started/completed, data/inst
system.cpu0.dtb.walker.walkRequestOrigin::total       187366                       # Table walker requests started/completed, data/inst
system.cpu0.dtb.inst_hits                           0                       # ITB inst hits
system.cpu0.dtb.inst_misses                         0                       # ITB inst misses
system.cpu0.dtb.read_hits                    83039604                       # DTB read hits
system.cpu0.dtb.read_misses                     74585                       # DTB read misses
system.cpu0.dtb.write_hits                   76137695                       # DTB write hits
system.cpu0.dtb.write_misses                    26466                       # DTB write misses
system.cpu0.dtb.flush_tlb                          14                       # Number of times complete TLB was flushed
system.cpu0.dtb.flush_tlb_mva                       0                       # Number of times TLB was flushed by MVA
system.cpu0.dtb.flush_tlb_mva_asid              42668                       # Number of times TLB was flushed by MVA & ASID
system.cpu0.dtb.flush_tlb_asid                   1040                       # Number of times TLB was flushed by ASID
system.cpu0.dtb.flush_entries                   37690                       # Number of entries that have been flushed from TLB
system.cpu0.dtb.align_faults                        0                       # Number of TLB faults due to alignment restrictions
system.cpu0.dtb.prefetch_faults                  4076                       # Number of TLB faults due to prefetch
system.cpu0.dtb.domain_faults                       0                       # Number of TLB faults due to domain restrictions
system.cpu0.dtb.perms_faults                    10173                       # Number of TLB faults due to permissions restrictions
system.cpu0.dtb.read_accesses                83114189                       # DTB read accesses
system.cpu0.dtb.write_accesses               76164161                       # DTB write accesses
system.cpu0.dtb.inst_accesses                       0                       # ITB inst accesses
system.cpu0.dtb.hits                        159177299                       # DTB hits
system.cpu0.dtb.misses                         101051                       # DTB misses
system.cpu0.dtb.accesses                    159278350                       # DTB accesses
system.cpu0.istage2_mmu.stage2_tlb.walker.walks            0                       # Table walker walks requested
system.cpu0.istage2_mmu.stage2_tlb.walker.walkRequestOrigin_Requested::Data            0                       # Table walker requests started/completed, data/inst
system.cpu0.istage2_mmu.stage2_tlb.walker.walkRequestOrigin_Requested::Inst            0                       # Table walker requests started/completed, data/inst
system.cpu0.istage2_mmu.stage2_tlb.walker.walkRequestOrigin_Requested::total            0                       # Table walker requests started/completed, data/inst
system.cpu0.istage2_mmu.stage2_tlb.walker.walkRequestOrigin_Completed::Data            0                       # Table walker requests started/completed, data/inst
system.cpu0.istage2_mmu.stage2_tlb.walker.walkRequestOrigin_Completed::Inst            0                       # Table walker requests started/completed, data/inst
system.cpu0.istage2_mmu.stage2_tlb.walker.walkRequestOrigin_Completed::total            0                       # Table walker requests started/completed, data/inst
system.cpu0.istage2_mmu.stage2_tlb.walker.walkRequestOrigin::total            0                       # Table walker requests started/completed, data/inst
system.cpu0.istage2_mmu.stage2_tlb.inst_hits            0                       # ITB inst hits
system.cpu0.istage2_mmu.stage2_tlb.inst_misses            0                       # ITB inst misses
system.cpu0.istage2_mmu.stage2_tlb.read_hits            0                       # DTB read hits
system.cpu0.istage2_mmu.stage2_tlb.read_misses            0                       # DTB read misses
system.cpu0.istage2_mmu.stage2_tlb.write_hits            0                       # DTB write hits
system.cpu0.istage2_mmu.stage2_tlb.write_misses            0                       # DTB write misses
system.cpu0.istage2_mmu.stage2_tlb.flush_tlb            0                       # Number of times complete TLB was flushed
system.cpu0.istage2_mmu.stage2_tlb.flush_tlb_mva            0                       # Number of times TLB was flushed by MVA
system.cpu0.istage2_mmu.stage2_tlb.flush_tlb_mva_asid            0                       # Number of times TLB was flushed by MVA & ASID
system.cpu0.istage2_mmu.stage2_tlb.flush_tlb_asid            0                       # Number of times TLB was flushed by ASID
system.cpu0.istage2_mmu.stage2_tlb.flush_entries            0                       # Number of entries that have been flushed from TLB
system.cpu0.istage2_mmu.stage2_tlb.align_faults            0                       # Number of TLB faults due to alignment restrictions
system.cpu0.istage2_mmu.stage2_tlb.prefetch_faults            0                       # Number of TLB faults due to prefetch
system.cpu0.istage2_mmu.stage2_tlb.domain_faults            0                       # Number of TLB faults due to domain restrictions
system.cpu0.istage2_mmu.stage2_tlb.perms_faults            0                       # Number of TLB faults due to permissions restrictions
system.cpu0.istage2_mmu.stage2_tlb.read_accesses            0                       # DTB read accesses
system.cpu0.istage2_mmu.stage2_tlb.write_accesses            0                       # DTB write accesses
system.cpu0.istage2_mmu.stage2_tlb.inst_accesses            0                       # ITB inst accesses
system.cpu0.istage2_mmu.stage2_tlb.hits             0                       # DTB hits
system.cpu0.istage2_mmu.stage2_tlb.misses            0                       # DTB misses
system.cpu0.istage2_mmu.stage2_tlb.accesses            0                       # DTB accesses
system.cpu0.itb.walker.walks                    61250                       # Table walker walks requested
system.cpu0.itb.walker.walksLong                61250                       # Table walker walks initiated with long descriptors
system.cpu0.itb.walker.walksLongTerminationLevel::Level2          499                       # Level at which table walker walks with long descriptors terminate
system.cpu0.itb.walker.walksLongTerminationLevel::Level3        55525                       # Level at which table walker walks with long descriptors terminate
system.cpu0.itb.walker.walkWaitTime::samples        61250                       # Table walker wait (enqueue to first request) latency
system.cpu0.itb.walker.walkWaitTime::0          61250    100.00%    100.00% # Table walker wait (enqueue to first request) latency
system.cpu0.itb.walker.walkWaitTime::total        61250                       # Table walker wait (enqueue to first request) latency
system.cpu0.itb.walker.walkCompletionTime::samples        56024                       # Table walker service (enqueue to completion) latency
system.cpu0.itb.walker.walkCompletionTime::mean 26762.682065                       # Table walker service (enqueue to completion) latency
system.cpu0.itb.walker.walkCompletionTime::gmean 22405.547992                       # Table walker service (enqueue to completion) latency
system.cpu0.itb.walker.walkCompletionTime::stdev 30987.782128                       # Table walker service (enqueue to completion) latency
system.cpu0.itb.walker.walkCompletionTime::0-65535        54387     97.08%     97.08% # Table walker service (enqueue to completion) latency
system.cpu0.itb.walker.walkCompletionTime::65536-131071           41      0.07%     97.15% # Table walker service (enqueue to completion) latency
system.cpu0.itb.walker.walkCompletionTime::131072-196607         1384      2.47%     99.62% # Table walker service (enqueue to completion) latency
system.cpu0.itb.walker.walkCompletionTime::196608-262143           41      0.07%     99.69% # Table walker service (enqueue to completion) latency
system.cpu0.itb.walker.walkCompletionTime::262144-327679           72      0.13%     99.82% # Table walker service (enqueue to completion) latency
system.cpu0.itb.walker.walkCompletionTime::327680-393215           22      0.04%     99.86% # Table walker service (enqueue to completion) latency
system.cpu0.itb.walker.walkCompletionTime::393216-458751           55      0.10%     99.96% # Table walker service (enqueue to completion) latency
system.cpu0.itb.walker.walkCompletionTime::458752-524287           10      0.02%     99.98% # Table walker service (enqueue to completion) latency
system.cpu0.itb.walker.walkCompletionTime::524288-589823            6      0.01%     99.99% # Table walker service (enqueue to completion) latency
system.cpu0.itb.walker.walkCompletionTime::589824-655359            4      0.01%    100.00% # Table walker service (enqueue to completion) latency
system.cpu0.itb.walker.walkCompletionTime::720896-786431            1      0.00%    100.00% # Table walker service (enqueue to completion) latency
system.cpu0.itb.walker.walkCompletionTime::851968-917503            1      0.00%    100.00% # Table walker service (enqueue to completion) latency
system.cpu0.itb.walker.walkCompletionTime::total        56024                       # Table walker service (enqueue to completion) latency
system.cpu0.itb.walker.walksPending::samples   1978837204                       # Table walker pending requests distribution
system.cpu0.itb.walker.walksPending::0     1978837204    100.00%    100.00% # Table walker pending requests distribution
system.cpu0.itb.walker.walksPending::total   1978837204                       # Table walker pending requests distribution
system.cpu0.itb.walker.walkPageSizes::4K        55525     99.11%     99.11% # Table walker page sizes translated
system.cpu0.itb.walker.walkPageSizes::2M          499      0.89%    100.00% # Table walker page sizes translated
system.cpu0.itb.walker.walkPageSizes::total        56024                       # Table walker page sizes translated
system.cpu0.itb.walker.walkRequestOrigin_Requested::Data            0                       # Table walker requests started/completed, data/inst
system.cpu0.itb.walker.walkRequestOrigin_Requested::Inst        61250                       # Table walker requests started/completed, data/inst
system.cpu0.itb.walker.walkRequestOrigin_Requested::total        61250                       # Table walker requests started/completed, data/inst
system.cpu0.itb.walker.walkRequestOrigin_Completed::Data            0                       # Table walker requests started/completed, data/inst
system.cpu0.itb.walker.walkRequestOrigin_Completed::Inst        56024                       # Table walker requests started/completed, data/inst
system.cpu0.itb.walker.walkRequestOrigin_Completed::total        56024                       # Table walker requests started/completed, data/inst
system.cpu0.itb.walker.walkRequestOrigin::total       117274                       # Table walker requests started/completed, data/inst
system.cpu0.itb.inst_hits                   441205116                       # ITB inst hits
system.cpu0.itb.inst_misses                     61250                       # ITB inst misses
system.cpu0.itb.read_hits                           0                       # DTB read hits
system.cpu0.itb.read_misses                         0                       # DTB read misses
system.cpu0.itb.write_hits                          0                       # DTB write hits
system.cpu0.itb.write_misses                        0                       # DTB write misses
system.cpu0.itb.flush_tlb                          14                       # Number of times complete TLB was flushed
system.cpu0.itb.flush_tlb_mva                       0                       # Number of times TLB was flushed by MVA
system.cpu0.itb.flush_tlb_mva_asid              42668                       # Number of times TLB was flushed by MVA & ASID
system.cpu0.itb.flush_tlb_asid                   1040                       # Number of times TLB was flushed by ASID
system.cpu0.itb.flush_entries                   26202                       # Number of entries that have been flushed from TLB
system.cpu0.itb.align_faults                        0                       # Number of TLB faults due to alignment restrictions
system.cpu0.itb.prefetch_faults                     0                       # Number of TLB faults due to prefetch
system.cpu0.itb.domain_faults                       0                       # Number of TLB faults due to domain restrictions
system.cpu0.itb.perms_faults                        0                       # Number of TLB faults due to permissions restrictions
system.cpu0.itb.read_accesses                       0                       # DTB read accesses
system.cpu0.itb.write_accesses                      0                       # DTB write accesses
system.cpu0.itb.inst_accesses               441266366                       # ITB inst accesses
system.cpu0.itb.hits                        441205116                       # DTB hits
system.cpu0.itb.misses                          61250                       # DTB misses
system.cpu0.itb.accesses                    441266366                       # DTB accesses
system.cpu0.numCycles                     94949400739                       # number of cpu cycles simulated
system.cpu0.numWorkItemsStarted                     0                       # number of work items this cpu started
system.cpu0.numWorkItemsCompleted                   0                       # number of work items this cpu completed
system.cpu0.kern.inst.arm                           0                       # number of arm instructions executed
system.cpu0.kern.inst.quiesce                    5268                       # number of quiesce instructions executed
system.cpu0.committedInsts                  440958495                       # Number of instructions committed
system.cpu0.committedOps                    519578987                       # Number of ops (including micro ops) committed
system.cpu0.num_int_alu_accesses            478066113                       # Number of integer alu accesses
system.cpu0.num_fp_alu_accesses                531836                       # Number of float alu accesses
system.cpu0.num_func_calls                   26928397                       # number of times a function call or return occured
system.cpu0.num_conditional_control_insts     66358328                       # number of instructions that are conditional controls
system.cpu0.num_int_insts                   478066113                       # number of integer instructions
system.cpu0.num_fp_insts                       531836                       # number of float instructions
system.cpu0.num_int_register_reads          691558601                       # number of times the integer registers were read
system.cpu0.num_int_register_writes         378884875                       # number of times the integer registers were written
system.cpu0.num_fp_register_reads              853461                       # number of times the floating registers were read
system.cpu0.num_fp_register_writes             460304                       # number of times the floating registers were written
system.cpu0.num_cc_register_reads           113354931                       # number of times the CC registers were read
system.cpu0.num_cc_register_writes          113143261                       # number of times the CC registers were written
system.cpu0.num_mem_refs                    159167445                       # number of memory refs
system.cpu0.num_load_insts                   83034076                       # Number of load instructions
system.cpu0.num_store_insts                  76133369                       # Number of store instructions
system.cpu0.num_idle_cycles              93735186324.296036                       # Number of idle cycles
system.cpu0.num_busy_cycles              1214214414.703974                       # Number of busy cycles
system.cpu0.not_idle_fraction                0.012788                       # Percentage of non-idle cycles
system.cpu0.idle_fraction                    0.987212                       # Percentage of idle cycles
system.cpu0.Branches                         98314010                       # Number of branches fetched
system.cpu0.op_class::No_OpClass                    1      0.00%      0.00% # Class of executed instruction
system.cpu0.op_class::IntAlu                359396375     69.13%     69.13% # Class of executed instruction
system.cpu0.op_class::IntMult                 1169846      0.23%     69.36% # Class of executed instruction
system.cpu0.op_class::IntDiv                    59621      0.01%     69.37% # Class of executed instruction
system.cpu0.op_class::FloatAdd                      0      0.00%     69.37% # Class of executed instruction
system.cpu0.op_class::FloatCmp                      0      0.00%     69.37% # Class of executed instruction
system.cpu0.op_class::FloatCvt                      0      0.00%     69.37% # Class of executed instruction
system.cpu0.op_class::FloatMult                     0      0.00%     69.37% # Class of executed instruction
system.cpu0.op_class::FloatDiv                      0      0.00%     69.37% # Class of executed instruction
system.cpu0.op_class::FloatSqrt                     0      0.00%     69.37% # Class of executed instruction
system.cpu0.op_class::SimdAdd                       0      0.00%     69.37% # Class of executed instruction
system.cpu0.op_class::SimdAddAcc                    0      0.00%     69.37% # Class of executed instruction
system.cpu0.op_class::SimdAlu                       0      0.00%     69.37% # Class of executed instruction
system.cpu0.op_class::SimdCmp                       0      0.00%     69.37% # Class of executed instruction
system.cpu0.op_class::SimdCvt                       0      0.00%     69.37% # Class of executed instruction
system.cpu0.op_class::SimdMisc                      0      0.00%     69.37% # Class of executed instruction
system.cpu0.op_class::SimdMult                      0      0.00%     69.37% # Class of executed instruction
system.cpu0.op_class::SimdMultAcc                   0      0.00%     69.37% # Class of executed instruction
system.cpu0.op_class::SimdShift                     0      0.00%     69.37% # Class of executed instruction
system.cpu0.op_class::SimdShiftAcc                  0      0.00%     69.37% # Class of executed instruction
system.cpu0.op_class::SimdSqrt                      0      0.00%     69.37% # Class of executed instruction
system.cpu0.op_class::SimdFloatAdd                  8      0.00%     69.37% # Class of executed instruction
system.cpu0.op_class::SimdFloatAlu                  0      0.00%     69.37% # Class of executed instruction
system.cpu0.op_class::SimdFloatCmp                 13      0.00%     69.37% # Class of executed instruction
system.cpu0.op_class::SimdFloatCvt                 21      0.00%     69.37% # Class of executed instruction
system.cpu0.op_class::SimdFloatDiv                  0      0.00%     69.37% # Class of executed instruction
system.cpu0.op_class::SimdFloatMisc             75402      0.01%     69.38% # Class of executed instruction
system.cpu0.op_class::SimdFloatMult                 0      0.00%     69.38% # Class of executed instruction
system.cpu0.op_class::SimdFloatMultAcc              0      0.00%     69.38% # Class of executed instruction
system.cpu0.op_class::SimdFloatSqrt                 0      0.00%     69.38% # Class of executed instruction
system.cpu0.op_class::MemRead                83034076     15.97%     85.36% # Class of executed instruction
system.cpu0.op_class::MemWrite               76133369     14.64%    100.00% # Class of executed instruction
system.cpu0.op_class::IprAccess                     0      0.00%    100.00% # Class of executed instruction
system.cpu0.op_class::InstPrefetch                  0      0.00%    100.00% # Class of executed instruction
system.cpu0.op_class::total                 519868732                       # Class of executed instruction
system.cpu0.dcache.tags.replacements          5565465                       # number of replacements
system.cpu0.dcache.tags.tagsinuse          503.695844                       # Cycle average of tags in use
system.cpu0.dcache.tags.total_refs          153367622                       # Total number of references to valid blocks.
system.cpu0.dcache.tags.sampled_refs          5565977                       # Sample count of references to valid blocks.
system.cpu0.dcache.tags.avg_refs            27.554484                       # Average number of references to valid blocks.
system.cpu0.dcache.tags.warmup_cycle       6293402000                       # Cycle when the warmup percentage was hit.
system.cpu0.dcache.tags.occ_blocks::cpu0.data   503.695844                       # Average occupied blocks per requestor
system.cpu0.dcache.tags.occ_percent::cpu0.data     0.983781                       # Average percentage of cache occupancy
system.cpu0.dcache.tags.occ_percent::total     0.983781                       # Average percentage of cache occupancy
system.cpu0.dcache.tags.occ_task_id_blocks::1024          512                       # Occupied blocks per task id
system.cpu0.dcache.tags.age_task_id_blocks_1024::0           72                       # Occupied blocks per task id
system.cpu0.dcache.tags.age_task_id_blocks_1024::1          429                       # Occupied blocks per task id
system.cpu0.dcache.tags.age_task_id_blocks_1024::2           11                       # Occupied blocks per task id
system.cpu0.dcache.tags.occ_task_id_percent::1024            1                       # Percentage of cache occupancy per task id
system.cpu0.dcache.tags.tag_accesses        323920102                       # Number of tag accesses
system.cpu0.dcache.tags.data_accesses       323920102                       # Number of data accesses
system.cpu0.dcache.ReadReq_hits::cpu0.data     77284320                       # number of ReadReq hits
system.cpu0.dcache.ReadReq_hits::total       77284320                       # number of ReadReq hits
system.cpu0.dcache.WriteReq_hits::cpu0.data     71935312                       # number of WriteReq hits
system.cpu0.dcache.WriteReq_hits::total      71935312                       # number of WriteReq hits
system.cpu0.dcache.SoftPFReq_hits::cpu0.data       189585                       # number of SoftPFReq hits
system.cpu0.dcache.SoftPFReq_hits::total       189585                       # number of SoftPFReq hits
system.cpu0.dcache.WriteLineReq_hits::cpu0.data       125588                       # number of WriteLineReq hits
system.cpu0.dcache.WriteLineReq_hits::total       125588                       # number of WriteLineReq hits
system.cpu0.dcache.LoadLockedReq_hits::cpu0.data      1730584                       # number of LoadLockedReq hits
system.cpu0.dcache.LoadLockedReq_hits::total      1730584                       # number of LoadLockedReq hits
system.cpu0.dcache.StoreCondReq_hits::cpu0.data      1699772                       # number of StoreCondReq hits
system.cpu0.dcache.StoreCondReq_hits::total      1699772                       # number of StoreCondReq hits
system.cpu0.dcache.demand_hits::cpu0.data    149219632                       # number of demand (read+write) hits
system.cpu0.dcache.demand_hits::total       149219632                       # number of demand (read+write) hits
system.cpu0.dcache.overall_hits::cpu0.data    149409217                       # number of overall hits
system.cpu0.dcache.overall_hits::total      149409217                       # number of overall hits
system.cpu0.dcache.ReadReq_misses::cpu0.data      3014242                       # number of ReadReq misses
system.cpu0.dcache.ReadReq_misses::total      3014242                       # number of ReadReq misses
system.cpu0.dcache.WriteReq_misses::cpu0.data      1370827                       # number of WriteReq misses
system.cpu0.dcache.WriteReq_misses::total      1370827                       # number of WriteReq misses
system.cpu0.dcache.SoftPFReq_misses::cpu0.data       635540                       # number of SoftPFReq misses
system.cpu0.dcache.SoftPFReq_misses::total       635540                       # number of SoftPFReq misses
system.cpu0.dcache.WriteLineReq_misses::cpu0.data       782263                       # number of WriteLineReq misses
system.cpu0.dcache.WriteLineReq_misses::total       782263                       # number of WriteLineReq misses
system.cpu0.dcache.LoadLockedReq_misses::cpu0.data       168057                       # number of LoadLockedReq misses
system.cpu0.dcache.LoadLockedReq_misses::total       168057                       # number of LoadLockedReq misses
system.cpu0.dcache.StoreCondReq_misses::cpu0.data       197269                       # number of StoreCondReq misses
system.cpu0.dcache.StoreCondReq_misses::total       197269                       # number of StoreCondReq misses
system.cpu0.dcache.demand_misses::cpu0.data      4385069                       # number of demand (read+write) misses
system.cpu0.dcache.demand_misses::total       4385069                       # number of demand (read+write) misses
system.cpu0.dcache.overall_misses::cpu0.data      5020609                       # number of overall misses
[...]
system.l2c.overall_avg_mshr_miss_latency::total 134866.106684                       # average overall mshr miss latency
system.l2c.ReadReq_avg_mshr_uncacheable_latency::cpu0.inst 112560.904348                       # average ReadReq mshr uncacheable latency
system.l2c.ReadReq_avg_mshr_uncacheable_latency::cpu0.data 140473.866790                       # average ReadReq mshr uncacheable latency
system.l2c.ReadReq_avg_mshr_uncacheable_latency::cpu1.inst 106513.636364                       # average ReadReq mshr uncacheable latency
system.l2c.ReadReq_avg_mshr_uncacheable_latency::cpu1.data 148018.152928                       # average ReadReq mshr uncacheable latency
system.l2c.ReadReq_avg_mshr_uncacheable_latency::total 127548.709086                       # average ReadReq mshr uncacheable latency
system.l2c.WriteReq_avg_mshr_uncacheable_latency::cpu0.data 141538.401633                       # average WriteReq mshr uncacheable latency
system.l2c.WriteReq_avg_mshr_uncacheable_latency::cpu1.data 149398.732540                       # average WriteReq mshr uncacheable latency
system.l2c.WriteReq_avg_mshr_uncacheable_latency::total 145542.201376                       # average WriteReq mshr uncacheable latency
system.l2c.overall_avg_mshr_uncacheable_latency::cpu0.inst 112560.904348                       # average overall mshr uncacheable latency
system.l2c.overall_avg_mshr_uncacheable_latency::cpu0.data 141025.741334                       # average overall mshr uncacheable latency
system.l2c.overall_avg_mshr_uncacheable_latency::cpu1.inst 106513.636364                       # average overall mshr uncacheable latency
system.l2c.overall_avg_mshr_uncacheable_latency::cpu1.data 148683.687466                       # average overall mshr uncacheable latency
system.l2c.overall_avg_mshr_uncacheable_latency::total 133274.885113                       # average overall mshr uncacheable latency
system.l2c.no_allocate_misses                       0                       # Number of misses that were no-allocate
system.membus.trans_dist::ReadReq               81299                       # Transaction distribution
system.membus.trans_dist::ReadResp             868698                       # Transaction distribution
system.membus.trans_dist::WriteReq              37949                       # Transaction distribution
system.membus.trans_dist::WriteResp             37949                       # Transaction distribution
system.membus.trans_dist::Writeback           1203792                       # Transaction distribution
system.membus.trans_dist::CleanEvict           220565                       # Transaction distribution
system.membus.trans_dist::UpgradeReq           376258                       # Transaction distribution
system.membus.trans_dist::SCUpgradeReq         321655                       # Transaction distribution
system.membus.trans_dist::UpgradeResp          113911                       # Transaction distribution
system.membus.trans_dist::SCUpgradeFailReq            3                       # Transaction distribution
system.membus.trans_dist::ReadExReq            660250                       # Transaction distribution
system.membus.trans_dist::ReadExResp           639853                       # Transaction distribution
system.membus.trans_dist::ReadSharedReq        787399                       # Transaction distribution
system.membus.trans_dist::InvalidateReq        106728                       # Transaction distribution
system.membus.trans_dist::InvalidateResp       106728                       # Transaction distribution
system.membus.pkt_count_system.l2c.mem_side::system.bridge.slave       122600                       # Packet count per connected master and slave (bytes)
system.membus.pkt_count_system.l2c.mem_side::system.realview.nvmem.port           92                       # Packet count per connected master and slave (bytes)
system.membus.pkt_count_system.l2c.mem_side::system.realview.gic.pio        24206                       # Packet count per connected master and slave (bytes)
system.membus.pkt_count_system.l2c.mem_side::system.physmem.port      5071225                       # Packet count per connected master and slave (bytes)
system.membus.pkt_count_system.l2c.mem_side::total      5218123                       # Packet count per connected master and slave (bytes)
system.membus.pkt_count_system.iocache.mem_side::system.physmem.port       341689                       # Packet count per connected master and slave (bytes)
system.membus.pkt_count_system.iocache.mem_side::total       341689                       # Packet count per connected master and slave (bytes)
system.membus.pkt_count::total                5559812                       # Packet count per connected master and slave (bytes)
system.membus.pkt_size_system.l2c.mem_side::system.bridge.slave       155707                       # Cumulative packet size per connected master and slave (bytes)
system.membus.pkt_size_system.l2c.mem_side::system.realview.nvmem.port          204                       # Cumulative packet size per connected master and slave (bytes)
system.membus.pkt_size_system.l2c.mem_side::system.realview.gic.pio        48412                       # Cumulative packet size per connected master and slave (bytes)
system.membus.pkt_size_system.l2c.mem_side::system.physmem.port    161136300                       # Cumulative packet size per connected master and slave (bytes)
system.membus.pkt_size_system.l2c.mem_side::total    161340623                       # Cumulative packet size per connected master and slave (bytes)
system.membus.pkt_size_system.iocache.mem_side::system.physmem.port      7239232                       # Cumulative packet size per connected master and slave (bytes)
system.membus.pkt_size_system.iocache.mem_side::total      7239232                       # Cumulative packet size per connected master and slave (bytes)
system.membus.pkt_size::total               168579855                       # Cumulative packet size per connected master and slave (bytes)
system.membus.snoops                           607627                       # Total snoops (count)
system.membus.snoop_fanout::samples           3798608                       # Request fanout histogram
system.membus.snoop_fanout::mean                    1                       # Request fanout histogram
system.membus.snoop_fanout::stdev                   0                       # Request fanout histogram
system.membus.snoop_fanout::underflows              0      0.00%      0.00% # Request fanout histogram
system.membus.snoop_fanout::0                       0      0.00%      0.00% # Request fanout histogram
system.membus.snoop_fanout::1                 3798608    100.00%    100.00% # Request fanout histogram
system.membus.snoop_fanout::2                       0      0.00%    100.00% # Request fanout histogram
system.membus.snoop_fanout::overflows               0      0.00%    100.00% # Request fanout histogram
system.membus.snoop_fanout::min_value               1                       # Request fanout histogram
system.membus.snoop_fanout::max_value               1                       # Request fanout histogram
system.membus.snoop_fanout::total             3798608                       # Request fanout histogram
system.membus.reqLayer0.occupancy           101169498                       # Layer occupancy (ticks)
system.membus.reqLayer0.utilization               0.0                       # Layer utilization (%)
system.membus.reqLayer1.occupancy               54500                       # Layer occupancy (ticks)
system.membus.reqLayer1.utilization               0.0                       # Layer utilization (%)
system.membus.reqLayer2.occupancy            20972999                       # Layer occupancy (ticks)
system.membus.reqLayer2.utilization               0.0                       # Layer utilization (%)
system.membus.reqLayer5.occupancy          8203462570                       # Layer occupancy (ticks)
system.membus.reqLayer5.utilization               0.0                       # Layer utilization (%)
system.membus.respLayer2.occupancy         7924808506                       # Layer occupancy (ticks)
system.membus.respLayer2.utilization              0.0                       # Layer utilization (%)
system.membus.respLayer3.occupancy          230064369                       # Layer occupancy (ticks)
system.membus.respLayer3.utilization              0.0                       # Layer utilization (%)
system.realview.ethernet.txBytes                  966                       # Bytes Transmitted
system.realview.ethernet.txPackets                  3                       # Number of Packets Transmitted
system.realview.ethernet.txIpChecksums              0                       # Number of tx IP Checksums done by device
system.realview.ethernet.txTcpChecksums             0                       # Number of tx TCP Checksums done by device
system.realview.ethernet.txUdpChecksums             0                       # Number of tx UDP Checksums done by device
system.realview.ethernet.descDMAReads               0                       # Number of descriptors the device read w/ DMA
system.realview.ethernet.descDMAWrites              0                       # Number of descriptors the device wrote w/ DMA
system.realview.ethernet.descDmaReadBytes            0                       # number of descriptor bytes read w/ DMA
system.realview.ethernet.descDmaWriteBytes            0                       # number of descriptor bytes write w/ DMA
system.realview.ethernet.totBandwidth             163                       # Total Bandwidth (bits/s)
system.realview.ethernet.totPackets                 3                       # Total Packets
system.realview.ethernet.totBytes                 966                       # Total Bytes
system.realview.ethernet.totPPS                     0                       # Total Tranmission Rate (packets/s)
system.realview.ethernet.txBandwidth              163                       # Transmit Bandwidth (bits/s)
system.realview.ethernet.txPPS                      0                       # Packet Tranmission Rate (packets/s)
system.realview.ethernet.postedSwi                  0                       # number of software interrupts posted to CPU
system.realview.ethernet.coalescedSwi               0                       # average number of Swi's coalesced into each post
system.realview.ethernet.totalSwi                   0                       # total number of Swi written to ISR
system.realview.ethernet.postedRxIdle               0                       # number of rxIdle interrupts posted to CPU
system.realview.ethernet.coalescedRxIdle            0                       # average number of RxIdle's coalesced into each post
system.realview.ethernet.totalRxIdle                0                       # total number of RxIdle written to ISR
system.realview.ethernet.postedRxOk                 0                       # number of RxOk interrupts posted to CPU
system.realview.ethernet.coalescedRxOk              0                       # average number of RxOk's coalesced into each post
system.realview.ethernet.totalRxOk                  0                       # total number of RxOk written to ISR
system.realview.ethernet.postedRxDesc               0                       # number of RxDesc interrupts posted to CPU
system.realview.ethernet.coalescedRxDesc            0                       # average number of RxDesc's coalesced into each post
system.realview.ethernet.totalRxDesc                0                       # total number of RxDesc written to ISR
system.realview.ethernet.postedTxOk                 0                       # number of TxOk interrupts posted to CPU
system.realview.ethernet.coalescedTxOk              0                       # average number of TxOk's coalesced into each post
system.realview.ethernet.totalTxOk                  0                       # total number of TxOk written to ISR
system.realview.ethernet.postedTxIdle               0                       # number of TxIdle interrupts posted to CPU
system.realview.ethernet.coalescedTxIdle            0                       # average number of TxIdle's coalesced into each post
system.realview.ethernet.totalTxIdle                0                       # total number of TxIdle written to ISR
system.realview.ethernet.postedTxDesc               0                       # number of TxDesc interrupts posted to CPU
system.realview.ethernet.coalescedTxDesc            0                       # average number of TxDesc's coalesced into each post
system.realview.ethernet.totalTxDesc                0                       # total number of TxDesc written to ISR
system.realview.ethernet.postedRxOrn                0                       # number of RxOrn posted to CPU
system.realview.ethernet.coalescedRxOrn             0                       # average number of RxOrn's coalesced into each post
system.realview.ethernet.totalRxOrn                 0                       # total number of RxOrn written to ISR
system.realview.ethernet.coalescedTotal             0                       # average number of interrupts coalesced into each post
system.realview.ethernet.postedInterrupts           13                       # number of posts to CPU
system.realview.ethernet.droppedPackets             0                       # number of packets dropped
system.realview.realview_io.osc_pxl.clock        42105                       # Clock period in ticks
system.realview.realview_io.osc_clcd.clock        42105                       # Clock period in ticks
system.realview.realview_io.osc_cpu.clock        16667                       # Clock period in ticks
system.realview.realview_io.osc_ddr.clock        25000                       # Clock period in ticks
system.realview.realview_io.osc_hsbm.clock        25000                       # Clock period in ticks
system.realview.realview_io.osc_mcc.clock        20000                       # Clock period in ticks
system.realview.realview_io.osc_peripheral.clock        41667                       # Clock period in ticks
system.realview.realview_io.osc_smb.clock        20000                       # Clock period in ticks
system.realview.realview_io.osc_sys.clock        16667                       # Clock period in ticks
system.realview.realview_io.osc_system_bus.clock        41667                       # Clock period in ticks
system.toL2Bus.snoop_filter.tot_requests     10304168                       # Total number of requests made to the snoop filter.
system.toL2Bus.snoop_filter.hit_single_requests      5242935                       # Number of requests hitting in the snoop filter with a single holder of the requested data.
system.toL2Bus.snoop_filter.hit_multi_requests      1823032                       # Number of requests hitting in the snoop filter with multiple (>1) holders of the requested data.
system.toL2Bus.snoop_filter.tot_snoops         155703                       # Total number of snoops made to the snoop filter.
system.toL2Bus.snoop_filter.hit_single_snoops       143721                       # Number of snoops hitting in the snoop filter with a single holder of the requested data.
system.toL2Bus.snoop_filter.hit_multi_snoops        11982                       # Number of snoops hitting in the snoop filter with multiple (>1) holders of the requested data.
system.toL2Bus.trans_dist::ReadReq              81301                       # Transaction distribution
system.toL2Bus.trans_dist::ReadResp           4203748                       # Transaction distribution
system.toL2Bus.trans_dist::WriteReq             37949                       # Transaction distribution
system.toL2Bus.trans_dist::WriteResp            37949                       # Transaction distribution
system.toL2Bus.trans_dist::Writeback          3518592                       # Transaction distribution
system.toL2Bus.trans_dist::CleanEvict         1268318                       # Transaction distribution
system.toL2Bus.trans_dist::UpgradeReq          429580                       # Transaction distribution
system.toL2Bus.trans_dist::SCUpgradeReq        333523                       # Transaction distribution
system.toL2Bus.trans_dist::UpgradeResp         763103                       # Transaction distribution
system.toL2Bus.trans_dist::SCUpgradeFailReq           68                       # Transaction distribution
system.toL2Bus.trans_dist::UpgradeFailResp           68                       # Transaction distribution
system.toL2Bus.trans_dist::ReadExReq          1086913                       # Transaction distribution
system.toL2Bus.trans_dist::ReadExResp         1086913                       # Transaction distribution
system.toL2Bus.trans_dist::ReadSharedReq      4129694                       # Transaction distribution
system.toL2Bus.trans_dist::InvalidateReq       106728                       # Transaction distribution
system.toL2Bus.pkt_count_system.cpu0.l2cache.mem_side::system.l2c.cpu_side      7476293                       # Packet count per connected master and slave (bytes)
system.toL2Bus.pkt_count_system.cpu1.l2cache.mem_side::system.l2c.cpu_side      6448186                       # Packet count per connected master and slave (bytes)
system.toL2Bus.pkt_count::total              13924479                       # Packet count per connected master and slave (bytes)
system.toL2Bus.pkt_size_system.cpu0.l2cache.mem_side::system.l2c.cpu_side    230559242                       # Cumulative packet size per connected master and slave (bytes)
system.toL2Bus.pkt_size_system.cpu1.l2cache.mem_side::system.l2c.cpu_side    190965829                       # Cumulative packet size per connected master and slave (bytes)
system.toL2Bus.pkt_size::total              421525071                       # Cumulative packet size per connected master and slave (bytes)
system.toL2Bus.snoops                         3161630                       # Total snoops (count)
system.toL2Bus.snoop_fanout::samples         12055300                       # Request fanout histogram
system.toL2Bus.snoop_fanout::mean            0.328437                       # Request fanout histogram
system.toL2Bus.snoop_fanout::stdev           0.471756                       # Request fanout histogram
system.toL2Bus.snoop_fanout::underflows             0      0.00%      0.00% # Request fanout histogram
system.toL2Bus.snoop_fanout::0                8107870     67.26%     67.26% # Request fanout histogram
system.toL2Bus.snoop_fanout::1                3935448     32.64%     99.90% # Request fanout histogram
system.toL2Bus.snoop_fanout::2                  11982      0.10%    100.00% # Request fanout histogram
system.toL2Bus.snoop_fanout::overflows              0      0.00%    100.00% # Request fanout histogram
system.toL2Bus.snoop_fanout::min_value              0                       # Request fanout histogram
system.toL2Bus.snoop_fanout::max_value              2                       # Request fanout histogram
system.toL2Bus.snoop_fanout::total           12055300                       # Request fanout histogram
system.toL2Bus.reqLayer0.occupancy         7945670452                       # Layer occupancy (ticks)
system.toL2Bus.reqLayer0.utilization              0.0                       # Layer utilization (%)
system.toL2Bus.snoopLayer0.occupancy          2561165                       # Layer occupancy (ticks)
system.toL2Bus.snoopLayer0.utilization            0.0                       # Layer utilization (%)
system.toL2Bus.respLayer0.occupancy        4404072117                       # Layer occupancy (ticks)
system.toL2Bus.respLayer0.utilization             0.0                       # Layer utilization (%)
system.toL2Bus.respLayer1.occupancy        3899520231                       # Layer occupancy (ticks)
system.toL2Bus.respLayer1.utilization             0.0                       # Layer utilization (%)

---------- End Simulation Statistics   ----------
