
---------- Begin Simulation Statistics ----------
sim_seconds                                 47.522770                       # Number of seconds simulated
sim_ticks                                47522770414500                       # Number of ticks simulated
final_tick                               47522770414500                       # Number of ticks from beginning of simulation (restored from checkpoints and never reset)
sim_freq                                 1000000000000                       # Frequency of simulated ticks
host_inst_rate                                 771698                       # Simulator instruction rate (inst/s)
host_op_rate                                   907739                       # Simulator op (including micro ops) rate (op/s)
host_tick_rate                            41601502224                       # Simulator tick rate (ticks/s)
host_mem_usage                                 746908                       # Number of bytes of host memory used
host_seconds                                  1142.33                       # Real time elapsed on the host
sim_insts                                   881535802                       # Number of instructions simulated
sim_ops                                    1036940641                       # Number of ops (including micro ops) simulated
system.voltage_domain.voltage                       1                       # Voltage in Volts
system.clk_domain.clock                          1000                       # Clock period in ticks
system.physmem.bytes_read::cpu0.dtb.walker        93760                       # Number of bytes read from this memory
system.physmem.bytes_read::cpu0.itb.walker        96448                       # Number of bytes read from this memory
system.physmem.bytes_read::cpu0.inst          3323828                       # Number of bytes read from this memory
system.physmem.bytes_read::cpu0.data         13811400                       # Number of bytes read from this memory
system.physmem.bytes_read::cpu0.l2cache.prefetcher     14713664                       # Number of bytes read from this memory
system.physmem.bytes_read::cpu1.dtb.walker       137344                       # Number of bytes read from this memory
system.physmem.bytes_read::cpu1.itb.walker       135424                       # Number of bytes read from this memory
system.physmem.bytes_read::cpu1.inst          2499960                       # Number of bytes read from this memory
system.physmem.bytes_read::cpu1.data          9313680                       # Number of bytes read from this memory
system.physmem.bytes_read::cpu1.l2cache.prefetcher     12080896                       # Number of bytes read from this memory
system.physmem.bytes_read::realview.ide        425472                       # Number of bytes read from this memory
system.physmem.bytes_read::total             56631876                       # Number of bytes read from this memory
system.physmem.bytes_inst_read::cpu0.inst      3323828                       # Number of instructions bytes read from this memory
system.physmem.bytes_inst_read::cpu1.inst      2499960                       # Number of instructions bytes read from this memory
system.physmem.bytes_inst_read::total         5823788                       # Number of instructions bytes read from this memory
system.physmem.bytes_written::writebacks     75221696                       # Number of bytes written to this memory
system.physmem.bytes_written::cpu0.data         20580                       # Number of bytes written to this memory
system.physmem.bytes_written::cpu1.data             4                       # Number of bytes written to this memory
system.physmem.bytes_written::total          75242280                       # Number of bytes written to this memory
system.physmem.num_reads::cpu0.dtb.walker         1465                       # Number of read requests responded to by this memory
system.physmem.num_reads::cpu0.itb.walker         1507                       # Number of read requests responded to by this memory
system.physmem.num_reads::cpu0.inst             92342                       # Number of read requests responded to by this memory
system.physmem.num_reads::cpu0.data            215816                       # Number of read requests responded to by this memory
system.physmem.num_reads::cpu0.l2cache.prefetcher       229901                       # Number of read requests responded to by this memory
system.physmem.num_reads::cpu1.dtb.walker         2146                       # Number of read requests responded to by this memory
system.physmem.num_reads::cpu1.itb.walker         2116                       # Number of read requests responded to by this memory
system.physmem.num_reads::cpu1.inst             39150                       # Number of read requests responded to by this memory
system.physmem.num_reads::cpu1.data            145539                       # Number of read requests responded to by this memory
system.physmem.num_reads::cpu1.l2cache.prefetcher       188764                       # Number of read requests responded to by this memory
system.physmem.num_reads::realview.ide           6648                       # Number of read requests responded to by this memory
system.physmem.num_reads::total                925394                       # Number of read requests responded to by this memory
system.physmem.num_writes::writebacks         1175339                       # Number of write requests responded to by this memory
system.physmem.num_writes::cpu0.data             2573                       # Number of write requests responded to by this memory
system.physmem.num_writes::cpu1.data                1                       # Number of write requests responded to by this memory
system.physmem.num_writes::total              1177913                       # Number of write requests responded to by this memory
system.physmem.bw_read::cpu0.dtb.walker          1973                       # Total read bandwidth from this memory (bytes/s)
system.physmem.bw_read::cpu0.itb.walker          2030                       # Total read bandwidth from this memory (bytes/s)
system.physmem.bw_read::cpu0.inst               69942                       # Total read bandwidth from this memory (bytes/s)
system.physmem.bw_read::cpu0.data              290627                       # Total read bandwidth from this memory (bytes/s)
system.physmem.bw_read::cpu0.l2cache.prefetcher       309613                       # Total read bandwidth from this memory (bytes/s)
system.physmem.bw_read::cpu1.dtb.walker          2890                       # Total read bandwidth from this memory (bytes/s)
system.physmem.bw_read::cpu1.itb.walker          2850                       # Total read bandwidth from this memory (bytes/s)
system.physmem.bw_read::cpu1.inst               52606                       # Total read bandwidth from this memory (bytes/s)
system.physmem.bw_read::cpu1.data              195984                       # Total read bandwidth from this memory (bytes/s)
system.physmem.bw_read::cpu1.l2cache.prefetcher       254213                       # Total read bandwidth from this memory (bytes/s)
system.physmem.bw_read::realview.ide             8953                       # Total read bandwidth from this memory (bytes/s)
system.physmem.bw_read::total                 1191679                       # Total read bandwidth from this memory (bytes/s)
system.physmem.bw_inst_read::cpu0.inst          69942                       # Instruction read bandwidth from this memory (bytes/s)
system.physmem.bw_inst_read::cpu1.inst          52606                       # Instruction read bandwidth from this memory (bytes/s)
system.physmem.bw_inst_read::total             122547                       # Instruction read bandwidth from this memory (bytes/s)
system.physmem.bw_write::writebacks           1582856                       # Write bandwidth from this memory (bytes/s)
system.physmem.bw_write::cpu0.data                433                       # Write bandwidth from this memory (bytes/s)
system.physmem.bw_write::cpu1.data                  0                       # Write bandwidth from this memory (bytes/s)
system.physmem.bw_write::total                1583289                       # Write bandwidth from this memory (bytes/s)
system.physmem.bw_total::writebacks           1582856                       # Total bandwidth to/from this memory (bytes/s)
system.physmem.bw_total::cpu0.dtb.walker         1973                       # Total bandwidth to/from this memory (bytes/s)
system.physmem.bw_total::cpu0.itb.walker         2030                       # Total bandwidth to/from this memory (bytes/s)
system.physmem.bw_total::cpu0.inst              69942                       # Total bandwidth to/from this memory (bytes/s)
system.physmem.bw_total::cpu0.data             291060                       # Total bandwidth to/from this memory (bytes/s)
system.physmem.bw_total::cpu0.l2cache.prefetcher       309613                       # Total bandwidth to/from this memory (bytes/s)
system.physmem.bw_total::cpu1.dtb.walker         2890                       # Total bandwidth to/from this memory (bytes/s)
system.physmem.bw_total::cpu1.itb.walker         2850                       # Total bandwidth to/from this memory (bytes/s)
system.physmem.bw_total::cpu1.inst              52606                       # Total bandwidth to/from this memory (bytes/s)
system.physmem.bw_total::cpu1.data             195984                       # Total bandwidth to/from this memory (bytes/s)
system.physmem.bw_total::cpu1.l2cache.prefetcher       254213                       # Total bandwidth to/from this memory (bytes/s)
system.physmem.bw_total::realview.ide            8953                       # Total bandwidth to/from this memory (bytes/s)
system.physmem.bw_total::total                2774968                       # Total bandwidth to/from this memory (bytes/s)
system.physmem.readReqs                        925394                       # Number of read requests accepted
system.physmem.writeReqs                      1177913                       # Number of write requests accepted
system.physmem.readBursts                      925394                       # Number of DRAM read bursts, including those serviced by the write queue
system.physmem.writeBursts                    1177913                       # Number of DRAM write bursts, including those merged in the write queue
system.physmem.bytesReadDRAM                 59200512                       # Total number of bytes read from DRAM
system.physmem.bytesReadWrQ                     24704                       # Total number of bytes read from write queue
system.physmem.bytesWritten                  75241664                       # Total number of bytes written to DRAM
system.physmem.bytesReadSys                  56631876                       # Total read bytes from the system interface side
system.physmem.bytesWrittenSys               75242280                       # Total written bytes from the system interface side
system.physmem.servicedByWrQ                      386                       # Number of DRAM read bursts serviced by the write queue
system.physmem.mergedWrBursts                    2246                       # Number of DRAM write bursts merged with an existing one
system.physmem.neitherReadNorWriteReqs              0                       # Number of requests that are neither read nor write
system.physmem.perBankRdBursts::0               52385                       # Per bank write bursts
system.physmem.perBankRdBursts::1               62471                       # Per bank write bursts
system.physmem.perBankRdBursts::2               52469                       # Per bank write bursts
system.physmem.perBankRdBursts::3               57006                       # Per bank write bursts
system.physmem.perBankRdBursts::4               52192                       # Per bank write bursts
system.physmem.perBankRdBursts::5               61065                       # Per bank write bursts
system.physmem.perBankRdBursts::6               52770                       # Per bank write bursts
system.physmem.perBankRdBursts::7               53841                       # Per bank write bursts
system.physmem.perBankRdBursts::8               49119                       # Per bank write bursts
system.physmem.perBankRdBursts::9               95933                       # Per bank write bursts
system.physmem.perBankRdBursts::10              50791                       # Per bank write bursts
system.physmem.perBankRdBursts::11              57135                       # Per bank write bursts
system.physmem.perBankRdBursts::12              57588                       # Per bank write bursts
system.physmem.perBankRdBursts::13              62036                       # Per bank write bursts
system.physmem.perBankRdBursts::14              54549                       # Per bank write bursts
system.physmem.perBankRdBursts::15              53658                       # Per bank write bursts
system.physmem.perBankWrBursts::0               70290                       # Per bank write bursts
system.physmem.perBankWrBursts::1               77699                       # Per bank write bursts
system.physmem.perBankWrBursts::2               70837                       # Per bank write bursts
system.physmem.perBankWrBursts::3               75524                       # Per bank write bursts
system.physmem.perBankWrBursts::4               70767                       # Per bank write bursts
system.physmem.perBankWrBursts::5               75365                       # Per bank write bursts
system.physmem.perBankWrBursts::6               70544                       # Per bank write bursts
system.physmem.perBankWrBursts::7               72537                       # Per bank write bursts
system.physmem.perBankWrBursts::8               71114                       # Per bank write bursts
system.physmem.perBankWrBursts::9               74364                       # Per bank write bursts
system.physmem.perBankWrBursts::10              70757                       # Per bank write bursts
system.physmem.perBankWrBursts::11              75591                       # Per bank write bursts
system.physmem.perBankWrBursts::12              74466                       # Per bank write bursts
system.physmem.perBankWrBursts::13              78806                       # Per bank write bursts
system.physmem.perBankWrBursts::14              73579                       # Per bank write bursts
system.physmem.perBankWrBursts::15              73411                       # Per bank write bursts
system.physmem.numRdRetry                           0                       # Number of times read queue was full causing retry
system.physmem.numWrRetry                          43                       # Number of times write queue was full causing retry
system.physmem.totGap                    47522767065000                       # Total gap between requests
system.physmem.readPktSize::0                       0                       # Read request sizes (log2)
system.physmem.readPktSize::1                       0                       # Read request sizes (log2)
system.physmem.readPktSize::2                   43195                       # Read request sizes (log2)
system.physmem.readPktSize::3                      25                       # Read request sizes (log2)
system.physmem.readPktSize::4                       5                       # Read request sizes (log2)
system.physmem.readPktSize::5                       0                       # Read request sizes (log2)
system.physmem.readPktSize::6                  882169                       # Read request sizes (log2)
system.physmem.writePktSize::0                      0                       # Write request sizes (log2)
system.physmem.writePktSize::1                      0                       # Write request sizes (log2)
system.physmem.writePktSize::2                      2                       # Write request sizes (log2)
system.physmem.writePktSize::3                   2572                       # Write request sizes (log2)
system.physmem.writePktSize::4                      0                       # Write request sizes (log2)
system.physmem.writePktSize::5                      0                       # Write request sizes (log2)
system.physmem.writePktSize::6                1175339                       # Write request sizes (log2)
system.physmem.rdQLenPdf::0                    655692                       # What read queue length does an incoming req see
system.physmem.rdQLenPdf::1                     79783                       # What read queue length does an incoming req see
system.physmem.rdQLenPdf::2                     38713                       # What read queue length does an incoming req see
system.physmem.rdQLenPdf::3                     33532                       # What read queue length does an incoming req see
system.physmem.rdQLenPdf::4                     28749                       # What read queue length does an incoming req see
system.physmem.rdQLenPdf::5                     25275                       # What read queue length does an incoming req see
system.physmem.rdQLenPdf::6                     22122                       # What read queue length does an incoming req see
system.physmem.rdQLenPdf::7                     17971                       # What read queue length does an incoming req see
system.physmem.rdQLenPdf::8                     15915                       # What read queue length does an incoming req see
system.physmem.rdQLenPdf::9                      2679                       # What read queue length does an incoming req see
system.physmem.rdQLenPdf::10                     1375                       # What read queue length does an incoming req see
system.physmem.rdQLenPdf::11                      894                       # What read queue length does an incoming req see
system.physmem.rdQLenPdf::12                      696                       # What read queue length does an incoming req see
system.physmem.rdQLenPdf::13                      480                       # What read queue length does an incoming req see
system.physmem.rdQLenPdf::14                      338                       # What read queue length does an incoming req see
system.physmem.rdQLenPdf::15                      279                       # What read queue length does an incoming req see
system.physmem.rdQLenPdf::16                      203                       # What read queue length does an incoming req see
system.physmem.rdQLenPdf::17                      169                       # What read queue length does an incoming req see
system.physmem.rdQLenPdf::18                       82                       # What read queue length does an incoming req see
system.physmem.rdQLenPdf::19                       59                       # What read queue length does an incoming req see
system.physmem.rdQLenPdf::20                        2                       # What read queue length does an incoming req see
system.physmem.rdQLenPdf::21                        0                       # What read queue length does an incoming req see
system.physmem.rdQLenPdf::22                        0                       # What read queue length does an incoming req see
system.physmem.rdQLenPdf::23                        0                       # What read queue length does an incoming req see
system.physmem.rdQLenPdf::24                        0                       # What read queue length does an incoming req see
system.physmem.rdQLenPdf::25                        0                       # What read queue length does an incoming req see
system.physmem.rdQLenPdf::26                        0                       # What read queue length does an incoming req see
system.physmem.rdQLenPdf::27                        0                       # What read queue length does an incoming req see
system.physmem.rdQLenPdf::28                        0                       # What read queue length does an incoming req see
system.physmem.rdQLenPdf::29                        0                       # What read queue length does an incoming req see
system.physmem.rdQLenPdf::30                        0                       # What read queue length does an incoming req see
system.physmem.rdQLenPdf::31                        0                       # What read queue length does an incoming req see
system.physmem.wrQLenPdf::0                         1                       # What write queue length does an incoming req see
system.physmem.wrQLenPdf::1                         1                       # What write queue length does an incoming req see
system.physmem.wrQLenPdf::2                         1                       # What write queue length does an incoming req see
system.physmem.wrQLenPdf::3                         1                       # What write queue length does an incoming req see
system.physmem.wrQLenPdf::4                         1                       # What write queue length does an incoming req see
system.physmem.wrQLenPdf::5                         1                       # What write queue length does an incoming req see
system.physmem.wrQLenPdf::6                         1                       # What write queue length does an incoming req see
system.physmem.wrQLenPdf::7                         1                       # What write queue length does an incoming req see
system.physmem.wrQLenPdf::8                         1                       # What write queue length does an incoming req see
system.physmem.wrQLenPdf::9                         1                       # What write queue length does an incoming req see
system.physmem.wrQLenPdf::10                        1                       # What write queue length does an incoming req see
system.physmem.wrQLenPdf::11                        1                       # What write queue length does an incoming req see
system.physmem.wrQLenPdf::12                        1                       # What write queue length does an incoming req see
system.physmem.wrQLenPdf::13                        1                       # What write queue length does an incoming req see
system.physmem.wrQLenPdf::14                        1                       # What write queue length does an incoming req see
system.physmem.wrQLenPdf::15                    31337                       # What write queue length does an incoming req see
system.physmem.wrQLenPdf::16                    39682                       # What write queue length does an incoming req see
system.physmem.wrQLenPdf::17                    50193                       # What write queue length does an incoming req see
system.physmem.wrQLenPdf::18                    56075                       # What write queue length does an incoming req see
system.physmem.wrQLenPdf::19                    61286                       # What write queue length does an incoming req see
system.physmem.wrQLenPdf::20                    64392                       # What write queue length does an incoming req see
system.physmem.wrQLenPdf::21                    67139                       # What write queue length does an incoming req see
system.physmem.wrQLenPdf::22                    68853                       # What write queue length does an incoming req see
system.physmem.wrQLenPdf::23                    71615                       # What write queue length does an incoming req see
system.physmem.wrQLenPdf::24                    71812                       # What write queue length does an incoming req see
system.physmem.wrQLenPdf::25                    75238                       # What write queue length does an incoming req see
system.physmem.wrQLenPdf::26                    77530                       # What write queue length does an incoming req see
system.physmem.wrQLenPdf::27                    73364                       # What write queue length does an incoming req see
system.physmem.wrQLenPdf::28                    73677                       # What write queue length does an incoming req see
system.physmem.wrQLenPdf::29                    78266                       # What write queue length does an incoming req see
system.physmem.wrQLenPdf::30                    71127                       # What write queue length does an incoming req see
system.physmem.wrQLenPdf::31                    65923                       # What write queue length does an incoming req see
system.physmem.wrQLenPdf::32                    63783                       # What write queue length does an incoming req see
system.physmem.wrQLenPdf::33                     2418                       # What write queue length does an incoming req see
system.physmem.wrQLenPdf::34                     1729                       # What write queue length does an incoming req see
system.physmem.wrQLenPdf::35                     1342                       # What write queue length does an incoming req see
system.physmem.wrQLenPdf::36                      960                       # What write queue length does an incoming req see
system.physmem.wrQLenPdf::37                      671                       # What write queue length does an incoming req see
system.physmem.wrQLenPdf::38                      613                       # What write queue length does an incoming req see
system.physmem.wrQLenPdf::39                      609                       # What write queue length does an incoming req see
system.physmem.wrQLenPdf::40                      406                       # What write queue length does an incoming req see
system.physmem.wrQLenPdf::41                      401                       # What write queue length does an incoming req see
system.physmem.wrQLenPdf::42                      451                       # What write queue length does an incoming req see
system.physmem.wrQLenPdf::43                      407                       # What write queue length does an incoming req see
system.physmem.wrQLenPdf::44                      408                       # What write queue length does an incoming req see
system.physmem.wrQLenPdf::45                      328                       # What write queue length does an incoming req see
system.physmem.wrQLenPdf::46                      398                       # What write queue length does an incoming req see
system.physmem.wrQLenPdf::47                      326                       # What write queue length does an incoming req see
system.physmem.wrQLenPdf::48                      274                       # What write queue length does an incoming req see
system.physmem.wrQLenPdf::49                      325                       # What write queue length does an incoming req see
system.physmem.wrQLenPdf::50                      269                       # What write queue length does an incoming req see
system.physmem.wrQLenPdf::51                      200                       # What write queue length does an incoming req see
system.physmem.wrQLenPdf::52                      213                       # What write queue length does an incoming req see
system.physmem.wrQLenPdf::53                      235                       # What write queue length does an incoming req see
system.physmem.wrQLenPdf::54                      212                       # What write queue length does an incoming req see
system.physmem.wrQLenPdf::55                      179                       # What write queue length does an incoming req see
system.physmem.wrQLenPdf::56                      176                       # What write queue length does an incoming req see
system.physmem.wrQLenPdf::57                      176                       # What write queue length does an incoming req see
system.physmem.wrQLenPdf::58                      119                       # What write queue length does an incoming req see
system.physmem.wrQLenPdf::59                      103                       # What write queue length does an incoming req see
system.physmem.wrQLenPdf::60                       99                       # What write queue length does an incoming req see
system.physmem.wrQLenPdf::61                      108                       # What write queue length does an incoming req see
system.physmem.wrQLenPdf::62                       79                       # What write queue length does an incoming req see
system.physmem.wrQLenPdf::63                      126                       # What write queue length does an incoming req see
system.physmem.bytesPerActivate::samples       971842                       # Bytes accessed per row activation
system.physmem.bytesPerActivate::mean      138.337154                       # Bytes accessed per row activation
system.physmem.bytesPerActivate::gmean      95.235739                       # Bytes accessed per row activation
system.physmem.bytesPerActivate::stdev     185.809364                       # Bytes accessed per row activation
system.physmem.bytesPerActivate::0-127         667325     68.67%     68.67% # Bytes accessed per row activation
system.physmem.bytesPerActivate::128-255       188611     19.41%     88.07% # Bytes accessed per row activation
system.physmem.bytesPerActivate::256-383        42123      4.33%     92.41% # Bytes accessed per row activation
system.physmem.bytesPerActivate::384-511        19056      1.96%     94.37% # Bytes accessed per row activation
system.physmem.bytesPerActivate::512-639        13469      1.39%     95.75% # Bytes accessed per row activation
system.physmem.bytesPerActivate::640-767         8562      0.88%     96.64% # Bytes accessed per row activation
system.physmem.bytesPerActivate::768-895         6056      0.62%     97.26% # Bytes accessed per row activation
system.physmem.bytesPerActivate::896-1023         5131      0.53%     97.79% # Bytes accessed per row activation
system.physmem.bytesPerActivate::1024-1151        21509      2.21%    100.00% # Bytes accessed per row activation
system.physmem.bytesPerActivate::total         971842                       # Bytes accessed per row activation
system.physmem.rdPerTurnAround::samples         61007                       # Reads before turning the bus around for writes
system.physmem.rdPerTurnAround::mean        15.162244                       # Reads before turning the bus around for writes
system.physmem.rdPerTurnAround::stdev      130.580515                       # Reads before turning the bus around for writes
system.physmem.rdPerTurnAround::0-1023          61004    100.00%    100.00% # Reads before turning the bus around for writes
system.physmem.rdPerTurnAround::1024-2047            1      0.00%    100.00% # Reads before turning the bus around for writes
system.physmem.rdPerTurnAround::20480-21503            1      0.00%    100.00% # Reads before turning the bus around for writes
system.physmem.rdPerTurnAround::23552-24575            1      0.00%    100.00% # Reads before turning the bus around for writes
system.physmem.rdPerTurnAround::total           61007                       # Reads before turning the bus around for writes
system.physmem.wrPerTurnAround::samples         61007                       # Writes before turning the bus around for reads
system.physmem.wrPerTurnAround::mean        19.270756                       # Writes before turning the bus around for reads
system.physmem.wrPerTurnAround::gmean       18.528593                       # Writes before turning the bus around for reads
system.physmem.wrPerTurnAround::stdev        7.773323                       # Writes before turning the bus around for reads
system.physmem.wrPerTurnAround::16-19           49057     80.41%     80.41% # Writes before turning the bus around for reads
system.physmem.wrPerTurnAround::20-23            4844      7.94%     88.35% # Writes before turning the bus around for reads
system.physmem.wrPerTurnAround::24-27            2913      4.77%     93.13% # Writes before turning the bus around for reads
system.physmem.wrPerTurnAround::28-31            1752      2.87%     96.00% # Writes before turning the bus around for reads
system.physmem.wrPerTurnAround::32-35             961      1.58%     97.57% # Writes before turning the bus around for reads
system.physmem.wrPerTurnAround::36-39             299      0.49%     98.06% # Writes before turning the bus around for reads
system.physmem.wrPerTurnAround::40-43             177      0.29%     98.35% # Writes before turning the bus around for reads
system.physmem.wrPerTurnAround::44-47             148      0.24%     98.60% # Writes before turning the bus around for reads
system.physmem.wrPerTurnAround::48-51              74      0.12%     98.72% # Writes before turning the bus around for reads
system.physmem.wrPerTurnAround::52-55              52      0.09%     98.80% # Writes before turning the bus around for reads
system.physmem.wrPerTurnAround::56-59              27      0.04%     98.85% # Writes before turning the bus around for reads
system.physmem.wrPerTurnAround::60-63              55      0.09%     98.94% # Writes before turning the bus around for reads
system.physmem.wrPerTurnAround::64-67             405      0.66%     99.60% # Writes before turning the bus around for reads
system.physmem.wrPerTurnAround::68-71              51      0.08%     99.69% # Writes before turning the bus around for reads
system.physmem.wrPerTurnAround::72-75              50      0.08%     99.77% # Writes before turning the bus around for reads
system.physmem.wrPerTurnAround::76-79              40      0.07%     99.83% # Writes before turning the bus around for reads
system.physmem.wrPerTurnAround::80-83              25      0.04%     99.87% # Writes before turning the bus around for reads
system.physmem.wrPerTurnAround::84-87               4      0.01%     99.88% # Writes before turning the bus around for reads
system.physmem.wrPerTurnAround::88-91               4      0.01%     99.89% # Writes before turning the bus around for reads
system.physmem.wrPerTurnAround::92-95               4      0.01%     99.89% # Writes before turning the bus around for reads
system.physmem.wrPerTurnAround::96-99               2      0.00%     99.90% # Writes before turning the bus around for reads
system.physmem.wrPerTurnAround::100-103             1      0.00%     99.90% # Writes before turning the bus around for reads
system.physmem.wrPerTurnAround::104-107             4      0.01%     99.90% # Writes before turning the bus around for reads
system.physmem.wrPerTurnAround::108-111             8      0.01%     99.92% # Writes before turning the bus around for reads
system.physmem.wrPerTurnAround::112-115             1      0.00%     99.92% # Writes before turning the bus around for reads
system.physmem.wrPerTurnAround::124-127             2      0.00%     99.92% # Writes before turning the bus around for reads
system.physmem.wrPerTurnAround::128-131            16      0.03%     99.95% # Writes before turning the bus around for reads
system.physmem.wrPerTurnAround::132-135             4      0.01%     99.96% # Writes before turning the bus around for reads
system.physmem.wrPerTurnAround::140-143             7      0.01%     99.97% # Writes before turning the bus around for reads
system.physmem.wrPerTurnAround::144-147             1      0.00%     99.97% # Writes before turning the bus around for reads
system.physmem.wrPerTurnAround::148-151             3      0.00%     99.97% # Writes before turning the bus around for reads
system.physmem.wrPerTurnAround::156-159             2      0.00%     99.98% # Writes before turning the bus around for reads
system.physmem.wrPerTurnAround::160-163             8      0.01%     99.99% # Writes before turning the bus around for reads
system.physmem.wrPerTurnAround::164-167             1      0.00%     99.99% # Writes before turning the bus around for reads
system.physmem.wrPerTurnAround::172-175             1      0.00%     99.99% # Writes before turning the bus around for reads
system.physmem.wrPerTurnAround::176-179             2      0.00%    100.00% # Writes before turning the bus around for reads
system.physmem.wrPerTurnAround::188-191             1      0.00%    100.00% # Writes before turning the bus around for reads
system.physmem.wrPerTurnAround::200-203             1      0.00%    100.00% # Writes before turning the bus around for reads
system.physmem.wrPerTurnAround::total           61007                       # Writes before turning the bus around for reads
system.physmem.totQLat                    29196891613                       # Total ticks spent queuing
system.physmem.totMemAccLat               46540791613                       # Total ticks spent from burst creation until serviced by the DRAM
system.physmem.totBusLat                   4625040000                       # Total ticks spent in databus transfers
system.physmem.avgQLat                       31563.93                       # Average queueing delay per DRAM burst
system.physmem.avgBusLat                      5000.00                       # Average bus latency per DRAM burst
system.physmem.avgMemAccLat                  50313.93                       # Average memory access latency per DRAM burst
system.physmem.avgRdBW                           1.25                       # Average DRAM read bandwidth in MiByte/s
system.physmem.avgWrBW                           1.58                       # Average achieved write bandwidth in MiByte/s
system.physmem.avgRdBWSys                        1.19                       # Average system read bandwidth in MiByte/s
system.physmem.avgWrBWSys                        1.58                       # Average system write bandwidth in MiByte/s
system.physmem.peakBW                        12800.00                       # Theoretical peak bandwidth in MiByte/s
system.physmem.busUtil                           0.02                       # Data bus utilization in percentage
system.physmem.busUtilRead                       0.01                       # Data bus utilization in percentage for reads
system.physmem.busUtilWrite                      0.01                       # Data bus utilization in percentage for writes
system.physmem.avgRdQLen                         1.14                       # Average read queue length when enqueuing
system.physmem.avgWrQLen                        24.93                       # Average write queue length when enqueuing
system.physmem.readRowHits                     690198                       # Number of row buffer hits during reads
system.physmem.writeRowHits                    438618                       # Number of row buffer hits during writes
system.physmem.readRowHitRate                   74.62                       # Row buffer hit rate for reads
system.physmem.writeRowHitRate                  37.31                       # Row buffer hit rate for writes
system.physmem.avgGap                     22594308.42                       # Average gap between requests
system.physmem.pageHitRate                      53.74                       # Row buffer hit rate, read and write combined
system.physmem_0.actEnergy                 3631876920                       # Energy for activate commands per rank (pJ)
system.physmem_0.preEnergy                 1981678875                       # Energy for precharge commands per rank (pJ)
system.physmem_0.readEnergy                3464752200                       # Energy for read commands per rank (pJ)
system.physmem_0.writeEnergy               3781488240                       # Energy for write commands per rank (pJ)
system.physmem_0.refreshEnergy           3103956292320                       # Energy for refresh commands per rank (pJ)
system.physmem_0.actBackEnergy           1186873055955                       # Energy for active background per rank (pJ)
system.physmem_0.preBackEnergy           27472545160500                       # Energy for precharge background per rank (pJ)
system.physmem_0.totalEnergy             31776234305010                       # Total energy per rank (pJ)
system.physmem_0.averagePower              668.652826                       # Core power per rank (mW)
system.physmem_0.memoryStateTime::IDLE   45702691627494                       # Time in different power states
system.physmem_0.memoryStateTime::REF    1586889720000                       # Time in different power states
system.physmem_0.memoryStateTime::PRE_PDN            0                       # Time in different power states
system.physmem_0.memoryStateTime::ACT    233188460006                       # Time in different power states
system.physmem_0.memoryStateTime::ACT_PDN            0                       # Time in different power states
system.physmem_1.actEnergy                 3715248600                       # Energy for activate commands per rank (pJ)
system.physmem_1.preEnergy                 2027169375                       # Energy for precharge commands per rank (pJ)
system.physmem_1.readEnergy                3750271200                       # Energy for read commands per rank (pJ)
system.physmem_1.writeEnergy               3836730240                       # Energy for write commands per rank (pJ)
system.physmem_1.refreshEnergy           3103956292320                       # Energy for refresh commands per rank (pJ)
system.physmem_1.actBackEnergy           1194406095015                       # Energy for active background per rank (pJ)
system.physmem_1.preBackEnergy           27465937231500                       # Energy for precharge background per rank (pJ)
system.physmem_1.totalEnergy             31777629038250                       # Total energy per rank (pJ)
system.physmem_1.averagePower              668.682174                       # Core power per rank (mW)
system.physmem_1.memoryStateTime::IDLE   45691606890492                       # Time in different power states
system.physmem_1.memoryStateTime::REF    1586889720000                       # Time in different power states
system.physmem_1.memoryStateTime::PRE_PDN            0                       # Time in different power states
system.physmem_1.memoryStateTime::ACT    244273354008                       # Time in different power states
system.physmem_1.memoryStateTime::ACT_PDN            0                       # Time in different power states
system.realview.nvmem.bytes_read::cpu0.inst           96                       # Number of bytes read from this memory
system.realview.nvmem.bytes_read::cpu0.data           36                       # Number of bytes read from this memory
system.realview.nvmem.bytes_read::cpu1.inst           64                       # Number of bytes read from this memory
system.realview.nvmem.bytes_read::cpu1.data            8                       # Number of bytes read from this memory
system.realview.nvmem.bytes_read::total           204                       # Number of bytes read from this memory
system.realview.nvmem.bytes_inst_read::cpu0.inst           96                       # Number of instructions bytes read from this memory
system.realview.nvmem.bytes_inst_read::cpu1.inst           64                       # Number of instructions bytes read from this memory
system.realview.nvmem.bytes_inst_read::total          160                       # Number of instructions bytes read from this memory
system.realview.nvmem.num_reads::cpu0.inst           24                       # Number of read requests responded to by this memory
system.realview.nvmem.num_reads::cpu0.data            5                       # Number of read requests responded to by this memory
system.realview.nvmem.num_reads::cpu1.inst           16                       # Number of read requests responded to by this memory
system.realview.nvmem.num_reads::cpu1.data            1                       # Number of read requests responded to by this memory
system.realview.nvmem.num_reads::total             46                       # Number of read requests responded to by this memory
system.realview.nvmem.bw_read::cpu0.inst            2                       # Total read bandwidth from this memory (bytes/s)
system.realview.nvmem.bw_read::cpu0.data            1                       # Total read bandwidth from this memory (bytes/s)
system.realview.nvmem.bw_read::cpu1.inst            1                       # Total read bandwidth from this memory (bytes/s)
system.realview.nvmem.bw_read::cpu1.data            0                       # Total read bandwidth from this memory (bytes/s)
system.realview.nvmem.bw_read::total                4                       # Total read bandwidth from this memory (bytes/s)
system.realview.nvmem.bw_inst_read::cpu0.inst            2                       # Instruction read bandwidth from this memory (bytes/s)
system.realview.nvmem.bw_inst_read::cpu1.inst            1                       # Instruction read bandwidth from this memory (bytes/s)
system.realview.nvmem.bw_inst_read::total            3                       # Instruction read bandwidth from this memory (bytes/s)
system.realview.nvmem.bw_total::cpu0.inst            2                       # Total bandwidth to/from this memory (bytes/s)
system.realview.nvmem.bw_total::cpu0.data            1                       # Total bandwidth to/from this memory (bytes/s)
system.realview.nvmem.bw_total::cpu1.inst            1                       # Total bandwidth to/from this memory (bytes/s)
system.realview.nvmem.bw_total::cpu1.data            0                       # Total bandwidth to/from this memory (bytes/s)
system.realview.nvmem.bw_total::total               4                       # Total bandwidth to/from this memory (bytes/s)
system.cf0.dma_read_full_pages                    122                       # Number of full page size DMA reads (not PRD).
system.cf0.dma_read_bytes                      499712                       # Number of bytes transfered via DMA reads (not PRD).
system.cf0.dma_read_txs                           122                       # Number of DMA read transactions (not PRD).
system.cf0.dma_write_full_pages                  1667                       # Number of full page size DMA writes.
system.cf0.dma_write_bytes                    6830592                       # Number of bytes transfered via DMA writes.
system.cf0.dma_write_txs                         1670                       # Number of DMA write transactions.
system.cpu_clk_domain.clock                       500                       # Clock period in ticks
system.cpu0.dstage2_mmu.stage2_tlb.walker.walks            0                       # Table walker walks requested
system.cpu0.dstage2_mmu.stage2_tlb.walker.walkRequestOrigin_Requested::Data            0                       # Table walker requests started/completed, data/inst
system.cpu0.dstage2_mmu.stage2_tlb.walker.walkRequestOrigin_Requested::Inst            0                       # Table walker requests started/completed, data/inst
system.cpu0.dstage2_mmu.stage2_tlb.walker.walkRequestOrigin_Requested::total            0                       # Table walker requests started/completed, data/inst
system.cpu0.dstage2_mmu.stage2_tlb.walker.walkRequestOrigin_Completed::Data            0                       # Table walker requests started/completed, data/inst
system.cpu0.dstage2_mmu.stage2_tlb.walker.walkRequestOrigin_Completed::Inst            0                       # Table walker requests started/completed, data/inst
system.cpu0.dstage2_mmu.stage2_tlb.walker.walkRequestOrigin_Completed::total            0                       # Table walker requests started/completed, data/inst
system.cpu0.dstage2_mmu.stage2_tlb.walker.walkRequestOrigin::total            0                       # Table walker requests started/completed, data/inst
system.cpu0.dstage2_mmu.stage2_tlb.inst_hits            0                       # ITB inst hits
system.cpu0.dstage2_mmu.stage2_tlb.inst_misses            0                       # ITB inst misses
system.cpu0.dstage2_mmu.stage2_tlb.read_hits            0                       # DTB read hits
system.cpu0.dstage2_mmu.stage2_tlb.read_misses            0                       # DTB read misses
system.cpu0.dstage2_mmu.stage2_tlb.write_hits            0                       # DTB write hits
system.cpu0.dstage2_mmu.stage2_tlb.write_misses            0                       # DTB write misses
system.cpu0.dstage2_mmu.stage2_tlb.flush_tlb            0                       # Number of times complete TLB was flushed
system.cpu0.dstage2_mmu.stage2_tlb.flush_tlb_mva            0                       # Number of times TLB was flushed by MVA
system.cpu0.dstage2_mmu.stage2_tlb.flush_tlb_mva_asid            0                       # Number of times TLB was flushed by MVA & ASID
system.cpu0.dstage2_mmu.stage2_tlb.flush_tlb_asid            0                       # Number of times TLB was flushed by ASID
system.cpu0.dstage2_mmu.stage2_tlb.flush_entries            0                       # Number of entries that have been flushed from TLB
system.cpu0.dstage2_mmu.stage2_tlb.align_faults            0                       # Number of TLB faults due to alignment restrictions
system.cpu0.dstage2_mmu.stage2_tlb.prefetch_faults            0                       # Number of TLB faults due to prefetch
system.cpu0.dstage2_mmu.stage2_tlb.domain_faults            0                       # Number of TLB faults due to domain restrictions
system.cpu0.dstage2_mmu.stage2_tlb.perms_faults            0                       # Number of TLB faults due to permissions restrictions
system.cpu0.dstage2_mmu.stage2_tlb.read_accesses            0                       # DTB read accesses
system.cpu0.dstage2_mmu.stage2_tlb.write_accesses            0                       # DTB write accesses
system.cpu0.dstage2_mmu.stage2_tlb.inst_accesses            0                       # ITB inst accesses
system.cpu0.dstage2_mmu.stage2_tlb.hits             0                       # DTB hits
system.cpu0.dstage2_mmu.stage2_tlb.misses            0                       # DTB misses
system.cpu0.dstage2_mmu.stage2_tlb.accesses            0                       # DTB accesses
system.cpu0.dtb.walker.walks                   111522                       # Table walker walks requested
system.cpu0.dtb.walker.walksLong               111522                       # Table walker walks initiated with long descriptors
system.cpu0.dtb.walker.walksLongTerminationLevel::Level2        12043                       # Level at which table walker walks with long descriptors terminate
system.cpu0.dtb.walker.walksLongTerminationLevel::Level3        84023                       # Level at which table walker walks with long descriptors terminate
system.cpu0.dtb.walker.walksSquashedBefore           24                       # Table walks squashed before starting
system.cpu0.dtb.walker.walkWaitTime::samples       111498                       # Table walker wait (enqueue to first request) latency
system.cpu0.dtb.walker.walkWaitTime::mean     0.224219                       # Table walker wait (enqueue to first request) latency
system.cpu0.dtb.walker.walkWaitTime::stdev    74.869765                       # Table walker wait (enqueue to first request) latency
system.cpu0.dtb.walker.walkWaitTime::0-2047       111497    100.00%    100.00% # Table walker wait (enqueue to first request) latency
system.cpu0.dtb.walker.walkWaitTime::24576-26623            1      0.00%    100.00% # Table walker wait (enqueue to first request) latency
system.cpu0.dtb.walker.walkWaitTime::total       111498                       # Table walker wait (enqueue to first request) latency
system.cpu0.dtb.walker.walkCompletionTime::samples        96090                       # Table walker service (enqueue to completion) latency
system.cpu0.dtb.walker.walkCompletionTime::mean 22204.527006                       # Table walker service (enqueue to completion) latency
system.cpu0.dtb.walker.walkCompletionTime::gmean 20954.891968                       # Table walker service (enqueue to completion) latency
system.cpu0.dtb.walker.walkCompletionTime::stdev 12694.708371                       # Table walker service (enqueue to completion) latency
system.cpu0.dtb.walker.walkCompletionTime::0-32767        91679     95.41%     95.41% # Table walker service (enqueue to completion) latency
system.cpu0.dtb.walker.walkCompletionTime::32768-65535         3478      3.62%     99.03% # Table walker service (enqueue to completion) latency
system.cpu0.dtb.walker.walkCompletionTime::65536-98303          141      0.15%     99.18% # Table walker service (enqueue to completion) latency
system.cpu0.dtb.walker.walkCompletionTime::98304-131071          658      0.68%     99.86% # Table walker service (enqueue to completion) latency
system.cpu0.dtb.walker.walkCompletionTime::131072-163839           17      0.02%     99.88% # Table walker service (enqueue to completion) latency
system.cpu0.dtb.walker.walkCompletionTime::163840-196607           14      0.01%     99.89% # Table walker service (enqueue to completion) latency
system.cpu0.dtb.walker.walkCompletionTime::196608-229375           32      0.03%     99.93% # Table walker service (enqueue to completion) latency
system.cpu0.dtb.walker.walkCompletionTime::229376-262143           16      0.02%     99.94% # Table walker service (enqueue to completion) latency
system.cpu0.dtb.walker.walkCompletionTime::262144-294911           20      0.02%     99.96% # Table walker service (enqueue to completion) latency
system.cpu0.dtb.walker.walkCompletionTime::294912-327679           23      0.02%     99.99% # Table walker service (enqueue to completion) latency
system.cpu0.dtb.walker.walkCompletionTime::327680-360447            2      0.00%     99.99% # Table walker service (enqueue to completion) latency
system.cpu0.dtb.walker.walkCompletionTime::360448-393215            4      0.00%     99.99% # Table walker service (enqueue to completion) latency
system.cpu0.dtb.walker.walkCompletionTime::393216-425983            4      0.00%    100.00% # Table walker service (enqueue to completion) latency
system.cpu0.dtb.walker.walkCompletionTime::425984-458751            1      0.00%    100.00% # Table walker service (enqueue to completion) latency
system.cpu0.dtb.walker.walkCompletionTime::458752-491519            1      0.00%    100.00% # Table walker service (enqueue to completion) latency
system.cpu0.dtb.walker.walkCompletionTime::total        96090                       # Table walker service (enqueue to completion) latency
system.cpu0.dtb.walker.walksPending::samples   2194735056                       # Table walker pending requests distribution
system.cpu0.dtb.walker.walksPending::mean     1.089935                       # Table walker pending requests distribution
system.cpu0.dtb.walker.walksPending::0     -197382796     -8.99%     -8.99% # Table walker pending requests distribution
system.cpu0.dtb.walker.walksPending::1     2392117852    108.99%    100.00% # Table walker pending requests distribution
system.cpu0.dtb.walker.walksPending::total   2194735056                       # Table walker pending requests distribution
system.cpu0.dtb.walker.walkPageSizes::4K        84024     87.46%     87.46% # Table walker page sizes translated
system.cpu0.dtb.walker.walkPageSizes::2M        12043     12.54%    100.00% # Table walker page sizes translated
system.cpu0.dtb.walker.walkPageSizes::total        96067                       # Table walker page sizes translated
system.cpu0.dtb.walker.walkRequestOrigin_Requested::Data       111522                       # Table walker requests started/completed, data/inst
system.cpu0.dtb.walker.walkRequestOrigin_Requested::Inst            0                       # Table walker requests started/completed, data/inst
system.cpu0.dtb.walker.walkRequestOrigin_Requested::total       111522                       # Table walker requests started/completed, data/inst
system.cpu0.dtb.walker.walkRequestOrigin_Completed::Data        96067                       # Table walker requests started/completed, data/inst
system.cpu0.dtb.walker.walkRequestOrigin_Completed::Inst            0                       # Table walker requests started/completed, data/inst
system.cpu0.dtb.walker.walkRequestOrigin_Completed::total        96067                       # Table walker requests started/completed, data/inst
system.cpu0.dtb.walker.walkRequestOrigin::total       207589                       # Table walker requests started/completed, data/inst
system.cpu0.dtb.inst_hits                           0                       # ITB inst hits
system.cpu0.dtb.inst_misses                         0                       # ITB inst misses
system.cpu0.dtb.read_hits                    86856517                       # DTB read hits
system.cpu0.dtb.read_misses                     84644                       # DTB read misses
system.cpu0.dtb.write_hits                   78666499                       # DTB write hits
system.cpu0.dtb.write_misses                    26878                       # DTB write misses
system.cpu0.dtb.flush_tlb                          14                       # Number of times complete TLB was flushed
system.cpu0.dtb.flush_tlb_mva                       0                       # Number of times TLB was flushed by MVA
system.cpu0.dtb.flush_tlb_mva_asid              41069                       # Number of times TLB was flushed by MVA & ASID
system.cpu0.dtb.flush_tlb_asid                   1040                       # Number of times TLB was flushed by ASID
system.cpu0.dtb.flush_entries                   37476                       # Number of entries that have been flushed from TLB
system.cpu0.dtb.align_faults                        0                       # Number of TLB faults due to alignment restrictions
system.cpu0.dtb.prefetch_faults                  4693                       # Number of TLB faults due to prefetch
system.cpu0.dtb.domain_faults                       0                       # Number of TLB faults due to domain restrictions
system.cpu0.dtb.perms_faults                     9143                       # Number of TLB faults due to permissions restrictions
system.cpu0.dtb.read_accesses                86941161                       # DTB read accesses
system.cpu0.dtb.write_accesses               78693377                       # DTB write accesses
system.cpu0.dtb.inst_accesses                       0                       # ITB inst accesses
system.cpu0.dtb.hits                        165523016                       # DTB hits
system.cpu0.dtb.misses                         111522                       # DTB misses
system.cpu0.dtb.accesses                    165634538                       # DTB accesses
system.cpu0.istage2_mmu.stage2_tlb.walker.walks            0                       # Table walker walks requested
system.cpu0.istage2_mmu.stage2_tlb.walker.walkRequestOrigin_Requested::Data            0                       # Table walker requests started/completed, data/inst
system.cpu0.istage2_mmu.stage2_tlb.walker.walkRequestOrigin_Requested::Inst            0                       # Table walker requests started/completed, data/inst
system.cpu0.istage2_mmu.stage2_tlb.walker.walkRequestOrigin_Requested::total            0                       # Table walker requests started/completed, data/inst
system.cpu0.istage2_mmu.stage2_tlb.walker.walkRequestOrigin_Completed::Data            0                       # Table walker requests started/completed, data/inst
system.cpu0.istage2_mmu.stage2_tlb.walker.walkRequestOrigin_Completed::Inst            0                       # Table walker requests started/completed, data/inst
system.cpu0.istage2_mmu.stage2_tlb.walker.walkRequestOrigin_Completed::total            0                       # Table walker requests started/completed, data/inst
system.cpu0.istage2_mmu.stage2_tlb.walker.walkRequestOrigin::total            0                       # Table walker requests started/completed, data/inst
system.cpu0.istage2_mmu.stage2_tlb.inst_hits            0                       # ITB inst hits
system.cpu0.istage2_mmu.stage2_tlb.inst_misses            0                       # ITB inst misses
system.cpu0.istage2_mmu.stage2_tlb.read_hits            0                       # DTB read hits
system.cpu0.istage2_mmu.stage2_tlb.read_misses            0                       # DTB read misses
system.cpu0.istage2_mmu.stage2_tlb.write_hits            0                       # DTB write hits
system.cpu0.istage2_mmu.stage2_tlb.write_misses            0                       # DTB write misses
system.cpu0.istage2_mmu.stage2_tlb.flush_tlb            0                       # Number of times complete TLB was flushed
system.cpu0.istage2_mmu.stage2_tlb.flush_tlb_mva            0                       # Number of times TLB was flushed by MVA
system.cpu0.istage2_mmu.stage2_tlb.flush_tlb_mva_asid            0                       # Number of times TLB was flushed by MVA & ASID
system.cpu0.istage2_mmu.stage2_tlb.flush_tlb_asid            0                       # Number of times TLB was flushed by ASID
system.cpu0.istage2_mmu.stage2_tlb.flush_entries            0                       # Number of entries that have been flushed from TLB
system.cpu0.istage2_mmu.stage2_tlb.align_faults            0                       # Number of TLB faults due to alignment restrictions
system.cpu0.istage2_mmu.stage2_tlb.prefetch_faults            0                       # Number of TLB faults due to prefetch
system.cpu0.istage2_mmu.stage2_tlb.domain_faults            0                       # Number of TLB faults due to domain restrictions
system.cpu0.istage2_mmu.stage2_tlb.perms_faults            0                       # Number of TLB faults due to permissions restrictions
system.cpu0.istage2_mmu.stage2_tlb.read_accesses            0                       # DTB read accesses
system.cpu0.istage2_mmu.stage2_tlb.write_accesses            0                       # DTB write accesses
system.cpu0.istage2_mmu.stage2_tlb.inst_accesses            0                       # ITB inst accesses
system.cpu0.istage2_mmu.stage2_tlb.hits             0                       # DTB hits
system.cpu0.istage2_mmu.stage2_tlb.misses            0                       # DTB misses
system.cpu0.istage2_mmu.stage2_tlb.accesses            0                       # DTB accesses
system.cpu0.itb.walker.walks                    57441                       # Table walker walks requested
system.cpu0.itb.walker.walksLong                57441                       # Table walker walks initiated with long descriptors
system.cpu0.itb.walker.walksLongTerminationLevel::Level2          633                       # Level at which table walker walks with long descriptors terminate
system.cpu0.itb.walker.walksLongTerminationLevel::Level3        51280                       # Level at which table walker walks with long descriptors terminate
system.cpu0.itb.walker.walkWaitTime::samples        57441                       # Table walker wait (enqueue to first request) latency
system.cpu0.itb.walker.walkWaitTime::0          57441    100.00%    100.00% # Table walker wait (enqueue to first request) latency
system.cpu0.itb.walker.walkWaitTime::total        57441                       # Table walker wait (enqueue to first request) latency
system.cpu0.itb.walker.walkCompletionTime::samples        51913                       # Table walker service (enqueue to completion) latency
system.cpu0.itb.walker.walkCompletionTime::mean 24992.593377                       # Table walker service (enqueue to completion) latency
system.cpu0.itb.walker.walkCompletionTime::gmean 23133.831517                       # Table walker service (enqueue to completion) latency
system.cpu0.itb.walker.walkCompletionTime::stdev 17289.167601                       # Table walker service (enqueue to completion) latency
system.cpu0.itb.walker.walkCompletionTime::0-65535        50947     98.14%     98.14% # Table walker service (enqueue to completion) latency
system.cpu0.itb.walker.walkCompletionTime::65536-131071          829      1.60%     99.74% # Table walker service (enqueue to completion) latency
system.cpu0.itb.walker.walkCompletionTime::131072-196607           33      0.06%     99.80% # Table walker service (enqueue to completion) latency
system.cpu0.itb.walker.walkCompletionTime::196608-262143           47      0.09%     99.89% # Table walker service (enqueue to completion) latency
system.cpu0.itb.walker.walkCompletionTime::262144-327679           45      0.09%     99.98% # Table walker service (enqueue to completion) latency
system.cpu0.itb.walker.walkCompletionTime::327680-393215            7      0.01%     99.99% # Table walker service (enqueue to completion) latency
system.cpu0.itb.walker.walkCompletionTime::393216-458751            2      0.00%     99.99% # Table walker service (enqueue to completion) latency
system.cpu0.itb.walker.walkCompletionTime::458752-524287            2      0.00%    100.00% # Table walker service (enqueue to completion) latency
system.cpu0.itb.walker.walkCompletionTime::524288-589823            1      0.00%    100.00% # Table walker service (enqueue to completion) latency
system.cpu0.itb.walker.walkCompletionTime::total        51913                       # Table walker service (enqueue to completion) latency
system.cpu0.itb.walker.walksPending::samples   -282313796                       # Table walker pending requests distribution
system.cpu0.itb.walker.walksPending::0     -282313796    100.00%    100.00% # Table walker pending requests distribution
system.cpu0.itb.walker.walksPending::total   -282313796                       # Table walker pending requests distribution
system.cpu0.itb.walker.walkPageSizes::4K        51280     98.78%     98.78% # Table walker page sizes translated
system.cpu0.itb.walker.walkPageSizes::2M          633      1.22%    100.00% # Table walker page sizes translated
system.cpu0.itb.walker.walkPageSizes::total        51913                       # Table walker page sizes translated
system.cpu0.itb.walker.walkRequestOrigin_Requested::Data            0                       # Table walker requests started/completed, data/inst
system.cpu0.itb.walker.walkRequestOrigin_Requested::Inst        57441                       # Table walker requests started/completed, data/inst
system.cpu0.itb.walker.walkRequestOrigin_Requested::total        57441                       # Table walker requests started/completed, data/inst
system.cpu0.itb.walker.walkRequestOrigin_Completed::Data            0                       # Table walker requests started/completed, data/inst
system.cpu0.itb.walker.walkRequestOrigin_Completed::Inst        51913                       # Table walker requests started/completed, data/inst
system.cpu0.itb.walker.walkRequestOrigin_Completed::total        51913                       # Table walker requests started/completed, data/inst
system.cpu0.itb.walker.walkRequestOrigin::total       109354                       # Table walker requests started/completed, data/inst
system.cpu0.itb.inst_hits                   461199865                       # ITB inst hits
system.cpu0.itb.inst_misses                     57441                       # ITB inst misses
system.cpu0.itb.read_hits                           0                       # DTB read hits
system.cpu0.itb.read_misses                         0                       # DTB read misses
system.cpu0.itb.write_hits                          0                       # DTB write hits
system.cpu0.itb.write_misses                        0                       # DTB write misses
system.cpu0.itb.flush_tlb                          14                       # Number of times complete TLB was flushed
system.cpu0.itb.flush_tlb_mva                       0                       # Number of times TLB was flushed by MVA
system.cpu0.itb.flush_tlb_mva_asid              41069                       # Number of times TLB was flushed by MVA & ASID
system.cpu0.itb.flush_tlb_asid                   1040                       # Number of times TLB was flushed by ASID
system.cpu0.itb.flush_entries                   26626                       # Number of entries that have been flushed from TLB
system.cpu0.itb.align_faults                        0                       # Number of TLB faults due to alignment restrictions
system.cpu0.itb.prefetch_faults                     0                       # Number of TLB faults due to prefetch
system.cpu0.itb.domain_faults                       0                       # Number of TLB faults due to domain restrictions
system.cpu0.itb.perms_faults                        0                       # Number of TLB faults due to permissions restrictions
system.cpu0.itb.read_accesses                       0                       # DTB read accesses
system.cpu0.itb.write_accesses                      0                       # DTB write accesses
system.cpu0.itb.inst_accesses               461257306                       # ITB inst accesses
system.cpu0.itb.hits                        461199865                       # DTB hits
system.cpu0.itb.misses                          57441                       # DTB misses
system.cpu0.itb.accesses                    461257306                       # DTB accesses
system.cpu0.numCycles                     95045540829                       # number of cpu cycles simulated
system.cpu0.numWorkItemsStarted                     0                       # number of work items this cpu started
system.cpu0.numWorkItemsCompleted                   0                       # number of work items this cpu completed
system.cpu0.kern.inst.arm                           0                       # number of arm instructions executed
system.cpu0.kern.inst.quiesce                   13927                       # number of quiesce instructions executed
system.cpu0.committedInsts                  460929213                       # Number of instructions committed
system.cpu0.committedOps                    541179982                       # Number of ops (including micro ops) committed
system.cpu0.num_int_alu_accesses            497492129                       # Number of integer alu accesses
system.cpu0.num_fp_alu_accesses                434558                       # Number of float alu accesses
system.cpu0.num_func_calls                   27781850                       # number of times a function call or return occured
system.cpu0.num_conditional_control_insts     69589132                       # number of instructions that are conditional controls
system.cpu0.num_int_insts                   497492129                       # number of integer instructions
system.cpu0.num_fp_insts                       434558                       # number of float instructions
system.cpu0.num_int_register_reads          719293830                       # number of times the integer registers were read
system.cpu0.num_int_register_writes         394367415                       # number of times the integer registers were written
system.cpu0.num_fp_register_reads              718787                       # number of times the floating registers were read
system.cpu0.num_fp_register_writes             331792                       # number of times the floating registers were written
system.cpu0.num_cc_register_reads           119457726                       # number of times the CC registers were read
system.cpu0.num_cc_register_writes          119087316                       # number of times the CC registers were written
system.cpu0.num_mem_refs                    165514046                       # number of memory refs
system.cpu0.num_load_insts                   86852092                       # Number of load instructions
system.cpu0.num_store_insts                  78661954                       # Number of store instructions
system.cpu0.num_idle_cycles              93905101360.384018                       # Number of idle cycles
system.cpu0.num_busy_cycles              1140439468.615976                       # Number of busy cycles
system.cpu0.not_idle_fraction                0.011999                       # Percentage of non-idle cycles
system.cpu0.idle_fraction                    0.988001                       # Percentage of idle cycles
system.cpu0.Branches                        102755128                       # Number of branches fetched
system.cpu0.op_class::No_OpClass                    1      0.00%      0.00% # Class of executed instruction
system.cpu0.op_class::IntAlu                374676211     69.19%     69.19% # Class of executed instruction
system.cpu0.op_class::IntMult                 1194745      0.22%     69.41% # Class of executed instruction
system.cpu0.op_class::IntDiv                    63344      0.01%     69.43% # Class of executed instruction
system.cpu0.op_class::FloatAdd                      0      0.00%     69.43% # Class of executed instruction
system.cpu0.op_class::FloatCmp                      0      0.00%     69.43% # Class of executed instruction
system.cpu0.op_class::FloatCvt                      0      0.00%     69.43% # Class of executed instruction
system.cpu0.op_class::FloatMult                     0      0.00%     69.43% # Class of executed instruction
system.cpu0.op_class::FloatDiv                      0      0.00%     69.43% # Class of executed instruction
system.cpu0.op_class::FloatSqrt                     0      0.00%     69.43% # Class of executed instruction
system.cpu0.op_class::SimdAdd                       0      0.00%     69.43% # Class of executed instruction
system.cpu0.op_class::SimdAddAcc                    0      0.00%     69.43% # Class of executed instruction
system.cpu0.op_class::SimdAlu                       0      0.00%     69.43% # Class of executed instruction
system.cpu0.op_class::SimdCmp                       0      0.00%     69.43% # Class of executed instruction
system.cpu0.op_class::SimdCvt                       0      0.00%     69.43% # Class of executed instruction
system.cpu0.op_class::SimdMisc                      0      0.00%     69.43% # Class of executed instruction
system.cpu0.op_class::SimdMult                      0      0.00%     69.43% # Class of executed instruction
system.cpu0.op_class::SimdMultAcc                   0      0.00%     69.43% # Class of executed instruction
system.cpu0.op_class::SimdShift                     0      0.00%     69.43% # Class of executed instruction
system.cpu0.op_class::SimdShiftAcc                  0      0.00%     69.43% # Class of executed instruction
system.cpu0.op_class::SimdSqrt                      0      0.00%     69.43% # Class of executed instruction
system.cpu0.op_class::SimdFloatAdd                  0      0.00%     69.43% # Class of executed instruction
system.cpu0.op_class::SimdFloatAlu                  0      0.00%     69.43% # Class of executed instruction
system.cpu0.op_class::SimdFloatCmp                  0      0.00%     69.43% # Class of executed instruction
system.cpu0.op_class::SimdFloatCvt                  0      0.00%     69.43% # Class of executed instruction
system.cpu0.op_class::SimdFloatDiv                  0      0.00%     69.43% # Class of executed instruction
system.cpu0.op_class::SimdFloatMisc             45411      0.01%     69.43% # Class of executed instruction
system.cpu0.op_class::SimdFloatMult                 0      0.00%     69.43% # Class of executed instruction
system.cpu0.op_class::SimdFloatMultAcc              0      0.00%     69.43% # Class of executed instruction
system.cpu0.op_class::SimdFloatSqrt                 0      0.00%     69.43% # Class of executed instruction
system.cpu0.op_class::MemRead                86852092     16.04%     85.47% # Class of executed instruction
system.cpu0.op_class::MemWrite               78661954     14.53%    100.00% # Class of executed instruction
system.cpu0.op_class::IprAccess                     0      0.00%    100.00% # Class of executed instruction
system.cpu0.op_class::InstPrefetch                  0      0.00%    100.00% # Class of executed instruction
system.cpu0.op_class::total                 541493758                       # Class of executed instruction
system.cpu0.dcache.tags.replacements          5689621                       # number of replacements
system.cpu0.dcache.tags.tagsinuse          508.423656                       # Cycle average of tags in use
system.cpu0.dcache.tags.total_refs          159582136                       # Total number of references to valid blocks.
system.cpu0.dcache.tags.sampled_refs          5690133                       # Sample count of references to valid blocks.
system.cpu0.dcache.tags.avg_refs            28.045414                       # Average number of references to valid blocks.
system.cpu0.dcache.tags.warmup_cycle       4031081000                       # Cycle when the warmup percentage was hit.
system.cpu0.dcache.tags.occ_blocks::cpu0.data   508.423656                       # Average occupied blocks per requestor
system.cpu0.dcache.tags.occ_percent::cpu0.data     0.993015                       # Average percentage of cache occupancy
system.cpu0.dcache.tags.occ_percent::total     0.993015                       # Average percentage of cache occupancy
system.cpu0.dcache.tags.occ_task_id_blocks::1024          512                       # Occupied blocks per task id
system.cpu0.dcache.tags.age_task_id_blocks_1024::0           73                       # Occupied blocks per task id
system.cpu0.dcache.tags.age_task_id_blocks_1024::1          404                       # Occupied blocks per task id
system.cpu0.dcache.tags.age_task_id_blocks_1024::2           35                       # Occupied blocks per task id
system.cpu0.dcache.tags.occ_task_id_percent::1024            1                       # Percentage of cache occupancy per task id
system.cpu0.dcache.tags.tag_accesses        336711039                       # Number of tag accesses
system.cpu0.dcache.tags.data_accesses       336711039                       # Number of data accesses
system.cpu0.dcache.ReadReq_hits::cpu0.data     80892970                       # number of ReadReq hits
system.cpu0.dcache.ReadReq_hits::total       80892970                       # number of ReadReq hits
system.cpu0.dcache.WriteReq_hits::cpu0.data     74279623                       # number of WriteReq hits
system.cpu0.dcache.WriteReq_hits::total      74279623                       # number of WriteReq hits
system.cpu0.dcache.SoftPFReq_hits::cpu0.data       199389                       # number of SoftPFReq hits
system.cpu0.dcache.SoftPFReq_hits::total       199389                       # number of SoftPFReq hits
system.cpu0.dcache.WriteLineReq_hits::cpu0.data       162229                       # number of WriteLineReq hits
system.cpu0.dcache.WriteLineReq_hits::total       162229                       # number of WriteLineReq hits
system.cpu0.dcache.LoadLockedReq_hits::cpu0.data      1824290                       # number of LoadLockedReq hits
system.cpu0.dcache.LoadLockedReq_hits::total      1824290                       # number of LoadLockedReq hits
system.cpu0.dcache.StoreCondReq_hits::cpu0.data      1791894                       # number of StoreCondReq hits
system.cpu0.dcache.StoreCondReq_hits::total      1791894                       # number of StoreCondReq hits
system.cpu0.dcache.demand_hits::cpu0.data    155334822                       # number of demand (read+write) hits
system.cpu0.dcache.demand_hits::total       155334822                       # number of demand (read+write) hits
system.cpu0.dcache.overall_hits::cpu0.data    155534211                       # number of overall hits
system.cpu0.dcache.overall_hits::total      155534211                       # number of overall hits
system.cpu0.dcache.ReadReq_misses::cpu0.data      3104051                       # number of ReadReq misses
system.cpu0.dcache.ReadReq_misses::total      3104051                       # number of ReadReq misses
[...]
system.l2c.ReadReq_avg_mshr_uncacheable_latency::cpu1.inst 67463.636364                       # average ReadReq mshr uncacheable latency
system.l2c.ReadReq_avg_mshr_uncacheable_latency::cpu1.data 145634.098069                       # average ReadReq mshr uncacheable latency
system.l2c.ReadReq_avg_mshr_uncacheable_latency::total 106095.762484                       # average ReadReq mshr uncacheable latency
system.l2c.overall_avg_mshr_uncacheable_latency::cpu0.inst 63067.408696                       # average overall mshr uncacheable latency
system.l2c.overall_avg_mshr_uncacheable_latency::cpu0.data 80352.654147                       # average overall mshr uncacheable latency
system.l2c.overall_avg_mshr_uncacheable_latency::cpu1.inst 67463.636364                       # average overall mshr uncacheable latency
system.l2c.overall_avg_mshr_uncacheable_latency::cpu1.data 69914.759551                       # average overall mshr uncacheable latency
system.l2c.overall_avg_mshr_uncacheable_latency::total 72157.173324                       # average overall mshr uncacheable latency
system.membus.snoop_filter.tot_requests       3697678                       # Total number of requests made to the snoop filter.
system.membus.snoop_filter.hit_single_requests      2246661                       # Number of requests hitting in the snoop filter with a single holder of the requested data.
system.membus.snoop_filter.hit_multi_requests         3188                       # Number of requests hitting in the snoop filter with multiple (>1) holders of the requested data.
system.membus.snoop_filter.tot_snoops               0                       # Total number of snoops made to the snoop filter.
system.membus.snoop_filter.hit_single_snoops            0                       # Number of snoops hitting in the snoop filter with a single holder of the requested data.
system.membus.snoop_filter.hit_multi_snoops            0                       # Number of snoops hitting in the snoop filter with multiple (>1) holders of the requested data.
system.membus.trans_dist::ReadReq               81885                       # Transaction distribution
system.membus.trans_dist::ReadResp             837971                       # Transaction distribution
system.membus.trans_dist::WriteReq              38514                       # Transaction distribution
system.membus.trans_dist::WriteResp             38514                       # Transaction distribution
system.membus.trans_dist::WritebackDirty      1175339                       # Transaction distribution
system.membus.trans_dist::CleanEvict           216465                       # Transaction distribution
system.membus.trans_dist::UpgradeReq           402269                       # Transaction distribution
system.membus.trans_dist::SCUpgradeReq         335845                       # Transaction distribution
system.membus.trans_dist::UpgradeResp              22                       # Transaction distribution
system.membus.trans_dist::SCUpgradeFailReq            1                       # Transaction distribution
system.membus.trans_dist::ReadExReq            147056                       # Transaction distribution
system.membus.trans_dist::ReadExResp           129063                       # Transaction distribution
system.membus.trans_dist::ReadSharedReq        756086                       # Transaction distribution
system.membus.trans_dist::InvalidateReq        664574                       # Transaction distribution
system.membus.pkt_count_system.l2c.mem_side::system.bridge.slave       122674                       # Packet count per connected master and slave (bytes)
system.membus.pkt_count_system.l2c.mem_side::system.realview.nvmem.port           92                       # Packet count per connected master and slave (bytes)
system.membus.pkt_count_system.l2c.mem_side::system.realview.gic.pio        26434                       # Packet count per connected master and slave (bytes)
system.membus.pkt_count_system.l2c.mem_side::system.physmem.port      4433526                       # Packet count per connected master and slave (bytes)
system.membus.pkt_count_system.l2c.mem_side::total      4582726                       # Packet count per connected master and slave (bytes)
system.membus.pkt_count_system.iocache.mem_side::system.physmem.port       237876                       # Packet count per connected master and slave (bytes)
system.membus.pkt_count_system.iocache.mem_side::total       237876                       # Packet count per connected master and slave (bytes)
system.membus.pkt_count::total                4820602                       # Packet count per connected master and slave (bytes)
system.membus.pkt_size_system.l2c.mem_side::system.bridge.slave       155781                       # Cumulative packet size per connected master and slave (bytes)
system.membus.pkt_size_system.l2c.mem_side::system.realview.nvmem.port          204                       # Cumulative packet size per connected master and slave (bytes)
system.membus.pkt_size_system.l2c.mem_side::system.realview.gic.pio        52868                       # Cumulative packet size per connected master and slave (bytes)
system.membus.pkt_size_system.l2c.mem_side::system.physmem.port    124620204                       # Cumulative packet size per connected master and slave (bytes)
system.membus.pkt_size_system.l2c.mem_side::total    124829057                       # Cumulative packet size per connected master and slave (bytes)
system.membus.pkt_size_system.iocache.mem_side::system.physmem.port      7253952                       # Cumulative packet size per connected master and slave (bytes)
system.membus.pkt_size_system.iocache.mem_side::total      7253952                       # Cumulative packet size per connected master and slave (bytes)
system.membus.pkt_size::total               132083009                       # Cumulative packet size per connected master and slave (bytes)
system.membus.snoops                           605187                       # Total snoops (count)
system.membus.snoop_fanout::samples           2426230                       # Request fanout histogram
system.membus.snoop_fanout::mean             0.013777                       # Request fanout histogram
system.membus.snoop_fanout::stdev            0.116566                       # Request fanout histogram
system.membus.snoop_fanout::underflows              0      0.00%      0.00% # Request fanout histogram
system.membus.snoop_fanout::0                 2392803     98.62%     98.62% # Request fanout histogram
system.membus.snoop_fanout::1                   33427      1.38%    100.00% # Request fanout histogram
system.membus.snoop_fanout::2                       0      0.00%    100.00% # Request fanout histogram
system.membus.snoop_fanout::overflows               0      0.00%    100.00% # Request fanout histogram
system.membus.snoop_fanout::min_value               0                       # Request fanout histogram
system.membus.snoop_fanout::max_value               1                       # Request fanout histogram
system.membus.snoop_fanout::total             2426230                       # Request fanout histogram
system.membus.reqLayer0.occupancy           101268497                       # Layer occupancy (ticks)
system.membus.reqLayer0.utilization               0.0                       # Layer utilization (%)
system.membus.reqLayer1.occupancy               54500                       # Layer occupancy (ticks)
system.membus.reqLayer1.utilization               0.0                       # Layer utilization (%)
system.membus.reqLayer2.occupancy            21861496                       # Layer occupancy (ticks)
system.membus.reqLayer2.utilization               0.0                       # Layer utilization (%)
system.membus.reqLayer5.occupancy          8209418227                       # Layer occupancy (ticks)
system.membus.reqLayer5.utilization               0.0                       # Layer utilization (%)
system.membus.respLayer2.occupancy         4835085635                       # Layer occupancy (ticks)
system.membus.respLayer2.utilization              0.0                       # Layer utilization (%)
system.membus.respLayer3.occupancy           45398182                       # Layer occupancy (ticks)
system.membus.respLayer3.utilization              0.0                       # Layer utilization (%)
system.realview.dcc.osc_cpu.clock               16667                       # Clock period in ticks
system.realview.dcc.osc_ddr.clock               25000                       # Clock period in ticks
system.realview.dcc.osc_hsbm.clock              25000                       # Clock period in ticks
system.realview.dcc.osc_pxl.clock               42105                       # Clock period in ticks
system.realview.dcc.osc_smb.clock               20000                       # Clock period in ticks
system.realview.dcc.osc_sys.clock               16667                       # Clock period in ticks
system.realview.ethernet.txBytes                  966                       # Bytes Transmitted
system.realview.ethernet.txPackets                  3                       # Number of Packets Transmitted
system.realview.ethernet.txIpChecksums              0                       # Number of tx IP Checksums done by device
system.realview.ethernet.txTcpChecksums             0                       # Number of tx TCP Checksums done by device
system.realview.ethernet.txUdpChecksums             0                       # Number of tx UDP Checksums done by device
system.realview.ethernet.descDMAReads               0                       # Number of descriptors the device read w/ DMA
system.realview.ethernet.descDMAWrites              0                       # Number of descriptors the device wrote w/ DMA
system.realview.ethernet.descDmaReadBytes            0                       # number of descriptor bytes read w/ DMA
system.realview.ethernet.descDmaWriteBytes            0                       # number of descriptor bytes write w/ DMA
system.realview.ethernet.totBandwidth             163                       # Total Bandwidth (bits/s)
system.realview.ethernet.totPackets                 3                       # Total Packets
system.realview.ethernet.totBytes                 966                       # Total Bytes
system.realview.ethernet.totPPS                     0                       # Total Tranmission Rate (packets/s)
system.realview.ethernet.txBandwidth              163                       # Transmit Bandwidth (bits/s)
system.realview.ethernet.txPPS                      0                       # Packet Tranmission Rate (packets/s)
system.realview.ethernet.postedSwi                  0                       # number of software interrupts posted to CPU
system.realview.ethernet.coalescedSwi               0                       # average number of Swi's coalesced into each post
system.realview.ethernet.totalSwi                   0                       # total number of Swi written to ISR
system.realview.ethernet.postedRxIdle               0                       # number of rxIdle interrupts posted to CPU
system.realview.ethernet.coalescedRxIdle            0                       # average number of RxIdle's coalesced into each post
system.realview.ethernet.totalRxIdle                0                       # total number of RxIdle written to ISR
system.realview.ethernet.postedRxOk                 0                       # number of RxOk interrupts posted to CPU
system.realview.ethernet.coalescedRxOk              0                       # average number of RxOk's coalesced into each post
system.realview.ethernet.totalRxOk                  0                       # total number of RxOk written to ISR
system.realview.ethernet.postedRxDesc               0                       # number of RxDesc interrupts posted to CPU
system.realview.ethernet.coalescedRxDesc            0                       # average number of RxDesc's coalesced into each post
system.realview.ethernet.totalRxDesc                0                       # total number of RxDesc written to ISR
system.realview.ethernet.postedTxOk                 0                       # number of TxOk interrupts posted to CPU
system.realview.ethernet.coalescedTxOk              0                       # average number of TxOk's coalesced into each post
system.realview.ethernet.totalTxOk                  0                       # total number of TxOk written to ISR
system.realview.ethernet.postedTxIdle               0                       # number of TxIdle interrupts posted to CPU
system.realview.ethernet.coalescedTxIdle            0                       # average number of TxIdle's coalesced into each post
system.realview.ethernet.totalTxIdle                0                       # total number of TxIdle written to ISR
system.realview.ethernet.postedTxDesc               0                       # number of TxDesc interrupts posted to CPU
system.realview.ethernet.coalescedTxDesc            0                       # average number of TxDesc's coalesced into each post
system.realview.ethernet.totalTxDesc                0                       # total number of TxDesc written to ISR
system.realview.ethernet.postedRxOrn                0                       # number of RxOrn posted to CPU
system.realview.ethernet.coalescedRxOrn             0                       # average number of RxOrn's coalesced into each post
system.realview.ethernet.totalRxOrn                 0                       # total number of RxOrn written to ISR
system.realview.ethernet.coalescedTotal             0                       # average number of interrupts coalesced into each post
system.realview.ethernet.postedInterrupts           13                       # number of posts to CPU
system.realview.ethernet.droppedPackets             0                       # number of packets dropped
system.realview.mcc.osc_clcd.clock              42105                       # Clock period in ticks
system.realview.mcc.osc_mcc.clock               20000                       # Clock period in ticks
system.realview.mcc.osc_peripheral.clock        41667                       # Clock period in ticks
system.realview.mcc.osc_system_bus.clock        41667                       # Clock period in ticks
system.toL2Bus.snoop_filter.tot_requests     10840157                       # Total number of requests made to the snoop filter.
system.toL2Bus.snoop_filter.hit_single_requests      5896724                       # Number of requests hitting in the snoop filter with a single holder of the requested data.
system.toL2Bus.snoop_filter.hit_multi_requests      1754214                       # Number of requests hitting in the snoop filter with multiple (>1) holders of the requested data.
system.toL2Bus.snoop_filter.tot_snoops         132701                       # Total number of snoops made to the snoop filter.
system.toL2Bus.snoop_filter.hit_single_snoops       121224                       # Number of snoops hitting in the snoop filter with a single holder of the requested data.
system.toL2Bus.snoop_filter.hit_multi_snoops        11477                       # Number of snoops hitting in the snoop filter with multiple (>1) holders of the requested data.
system.toL2Bus.trans_dist::ReadReq              81887                       # Transaction distribution
system.toL2Bus.trans_dist::ReadResp           4082535                       # Transaction distribution
system.toL2Bus.trans_dist::WriteReq             38514                       # Transaction distribution
system.toL2Bus.trans_dist::WriteResp            38514                       # Transaction distribution
system.toL2Bus.trans_dist::WritebackDirty      3675345                       # Transaction distribution
system.toL2Bus.trans_dist::CleanEvict         2314292                       # Transaction distribution
system.toL2Bus.trans_dist::UpgradeReq          683405                       # Transaction distribution
system.toL2Bus.trans_dist::SCUpgradeReq        409707                       # Transaction distribution
system.toL2Bus.trans_dist::UpgradeResp        1093112                       # Transaction distribution
system.toL2Bus.trans_dist::SCUpgradeFailReq          115                       # Transaction distribution
system.toL2Bus.trans_dist::UpgradeFailResp          115                       # Transaction distribution
system.toL2Bus.trans_dist::ReadExReq           292338                       # Transaction distribution
system.toL2Bus.trans_dist::ReadExResp          292338                       # Transaction distribution
system.toL2Bus.trans_dist::ReadSharedReq      4001459                       # Transaction distribution
system.toL2Bus.trans_dist::InvalidateReq       832376                       # Transaction distribution
system.toL2Bus.trans_dist::InvalidateResp       802179                       # Transaction distribution
system.toL2Bus.pkt_count_system.cpu0.l2cache.mem_side::system.l2c.cpu_side      8623692                       # Packet count per connected master and slave (bytes)
system.toL2Bus.pkt_count_system.cpu1.l2cache.mem_side::system.l2c.cpu_side      7234411                       # Packet count per connected master and slave (bytes)
system.toL2Bus.pkt_count::total              15858103                       # Packet count per connected master and slave (bytes)
system.toL2Bus.pkt_size_system.cpu0.l2cache.mem_side::system.l2c.cpu_side    210145531                       # Cumulative packet size per connected master and slave (bytes)
system.toL2Bus.pkt_size_system.cpu1.l2cache.mem_side::system.l2c.cpu_side    178915910                       # Cumulative packet size per connected master and slave (bytes)
system.toL2Bus.pkt_size::total              389061441                       # Cumulative packet size per connected master and slave (bytes)
system.toL2Bus.snoops                         2781791                       # Total snoops (count)
system.toL2Bus.snoop_fanout::samples          7676067                       # Request fanout histogram
system.toL2Bus.snoop_fanout::mean            0.360389                       # Request fanout histogram
system.toL2Bus.snoop_fanout::stdev           0.483218                       # Request fanout histogram
system.toL2Bus.snoop_fanout::underflows             0      0.00%      0.00% # Request fanout histogram
system.toL2Bus.snoop_fanout::0                4921172     64.11%     64.11% # Request fanout histogram
system.toL2Bus.snoop_fanout::1                2743418     35.74%     99.85% # Request fanout histogram
system.toL2Bus.snoop_fanout::2                  11477      0.15%    100.00% # Request fanout histogram
system.toL2Bus.snoop_fanout::overflows              0      0.00%    100.00% # Request fanout histogram
system.toL2Bus.snoop_fanout::min_value              0                       # Request fanout histogram
system.toL2Bus.snoop_fanout::max_value              2                       # Request fanout histogram
system.toL2Bus.snoop_fanout::total            7676067                       # Request fanout histogram
system.toL2Bus.reqLayer0.occupancy         8520913919                       # Layer occupancy (ticks)
system.toL2Bus.reqLayer0.utilization              0.0                       # Layer utilization (%)
system.toL2Bus.snoopLayer0.occupancy          2554437                       # Layer occupancy (ticks)
system.toL2Bus.snoopLayer0.utilization            0.0                       # Layer utilization (%)
system.toL2Bus.respLayer0.occupancy        3920667694                       # Layer occupancy (ticks)
system.toL2Bus.respLayer0.utilization             0.0                       # Layer utilization (%)
system.toL2Bus.respLayer1.occupancy        3580148330                       # Layer occupancy (ticks)
system.toL2Bus.respLayer1.utilization             0.0                       # Layer utilization (%)

---------- End Simulation Statistics   ----------
