gem5 Simulator System.  http://gem5.org
gem5 is copyrighted software; use the --copyright option for details.

gem5 compiled Jul 10 2012 17:56:55
gem5 started Jul 10 2012 17:57:35
gem5 executing on sc2b0605
command line: build/SPARC/gem5.opt -d build/SPARC/tests/opt/quick/se/00.hello/sparc/linux/simple-timing-ruby -re tests/run.py build/SPARC/tests/opt/quick/se/00.hello/sparc/linux/simple-timing-ruby
Global frequency set at 1000000000 ticks per second
info: Entering event queue @ 0.  Starting simulation...
Hello World!Exiting @ tick 253364 because target called exit()
