McPAT (version 0.8 of Aug, 2010) is computing the target processor...
 

McPAT (version 0.8 of Aug, 2010) results  (current print level is 5)
*****************************************************************************************
  Technology 40 nm
  Using Long Channel Devices When Appropriate
  Interconnect metal projection = conservative interconnect technology projection
  Target Clock Rate (MHz) 1000

*****************************************************************************************
  System:
    Area = 45.6524 mm^2
    Peak Dynamic Power = 5.87353 W
    Subthreshold Leakage Power = 8.43026 W
    Gate Leakage Power = 0.667718 W
    Runtime Dynamic Power = 2.56577 W
    Runtime Dynamic Energy = 2.9057 J
    Total Runtime Energy = 13.209 J

      Core 0:
        Area = 5.11302 mm^2
        Peak Dynamic Power = 0.725551 W
        Subthreshold Leakage Power = 0.910011 W
        Gate Leakage Power = 0.0793208 W
        Runtime Dynamic Power = 0.319159 W
        Runtime Dynamic Energy = 0.361444 J
        Total Runtime Energy = 1.48185 J

          Instruction Fetch Unit:
            Area = 1.07061 mm^2
            Peak Dynamic Power = 0.069507 W
            Subthreshold Leakage Power = 0.0768543 W
            Gate Leakage Power = 0.00183262 W
            Runtime Dynamic Power = 0.0564461 W
            Runtime Dynamic Energy = 0.0639245 J
            Total Runtime Energy = 0.153036 J

              Instruction Cache:
                Area = 1.06646 mm^2
                Peak Dynamic Power = 0.0345629 W
                Subthreshold Leakage Power = 0.0723979 W
                Gate Leakage Power = 0.00168831 W
                Runtime Dynamic Power = 0.036416 W
                Runtime Dynamic Energy = 0.0412406 J
                Total Runtime Energy = 0.125142 J

                  Data and Tag Arrays:
                    Area = 0.259164 mm^2
                    Peak Dynamic Power = 0 W
                    Subthreshold Leakage Power = 0.066312 W
                    Gate Leakage Power = 0.00138196 W
                    Runtime Dynamic Power = 0.0364116 W
                    Runtime Dynamic Energy = 0.0412357 J
                    Total Runtime Energy = 0.117898 J

                  Miss Buffer:
                    Area = 0.315209 mm^2
                    Peak Dynamic Power = 0.0124784 W
                    Subthreshold Leakage Power = 0.00218421 W
                    Gate Leakage Power = 0.000109941 W
                    Runtime Dynamic Power = 1.57463e-06 W
                    Runtime Dynamic Energy = 1.78325e-06 J
                    Total Runtime Energy = 0.00259988 J

                  Fill Buffer:
                    Area = 0.246043 mm^2
                    Peak Dynamic Power = 0.0110423 W
                    Subthreshold Leakage Power = 0.00195087 W
                    Gate Leakage Power = 9.82028e-05 W
                    Runtime Dynamic Power = 1.38112e-06 W
                    Runtime Dynamic Energy = 1.5641e-06 J
                    Total Runtime Energy = 0.00232211 J

                  Prefetch Buffer:
                    Area = 0.246043 mm^2
                    Peak Dynamic Power = 0.0110423 W
                    Subthreshold Leakage Power = 0.00195087 W
                    Gate Leakage Power = 9.82028e-05 W
                    Runtime Dynamic Power = 1.38112e-06 W
                    Runtime Dynamic Energy = 1.5641e-06 J
                    Total Runtime Energy = 0.00232211 J

              Instruction Buffer:
                Area = 0.00177465 mm^2
                Peak Dynamic Power = 0.00177346 W
                Subthreshold Leakage Power = 0.000334365 W
                Gate Leakage Power = 1.02451e-05 W
                Runtime Dynamic Power = 0.00101656 W
                Runtime Dynamic Energy = 0.00115124 J
                Total Runtime Energy = 0.0015415 J

              Instruction Opcode Decoder:
                Area = 0.000733115 mm^2
                Peak Dynamic Power = 0.0110556 W
                Subthreshold Leakage Power = 0.00127003 W
                Gate Leakage Power = 4.16647e-05 W
                Runtime Dynamic Power = 0.00633713 W
                Runtime Dynamic Energy = 0.00717672 J
                Total Runtime Energy = 0.0086622 J

              Instruction Operand Decoder:
                Area = 0.00018867 mm^2
                Peak Dynamic Power = 0.0110476 W
                Subthreshold Leakage Power = 0.00032028 W
                Gate Leakage Power = 1.08411e-05 W
                Runtime Dynamic Power = 0.00633254 W
                Runtime Dynamic Energy = 0.00717152 J
                Total Runtime Energy = 0.00754651 J

              Instruction Microcode Decoder:
                Area = 0.00144948 mm^2
                Peak Dynamic Power = 0.0110675 W
                Subthreshold Leakage Power = 0.00253168 W
                Gate Leakage Power = 8.15593e-05 W
                Runtime Dynamic Power = 0.00634394 W
                Runtime Dynamic Energy = 0.00718443 J
                Total Runtime Energy = 0.0101439 J

          Load/Store Unit:
            Area = 1.11574 mm^2
            Peak Dynamic Power = 0.0490235 W
            Subthreshold Leakage Power = 0.076641 W
            Gate Leakage Power = 0.00186238 W
            Runtime Dynamic Power = 0.0123319 W
            Runtime Dynamic Energy = 0.0139657 J
            Total Runtime Energy = 0.10287 J

              Data Cache:
                Area = 1.06646 mm^2
                Peak Dynamic Power = 0.0345629 W
                Subthreshold Leakage Power = 0.0723979 W
                Gate Leakage Power = 0.00168831 W
                Runtime Dynamic Power = 0.00873751 W
                Runtime Dynamic Energy = 0.00989512 J
                Total Runtime Energy = 0.0937968 J

                  Data and Tag Arrays:
                    Area = 0.259164 mm^2
                    Peak Dynamic Power = 0 W
                    Subthreshold Leakage Power = 0.066312 W
                    Gate Leakage Power = 0.00138196 W
                    Runtime Dynamic Power = 0.00867008 W
                    Runtime Dynamic Energy = 0.00981876 J
                    Total Runtime Energy = 0.0864813 J

                  Miss Buffer:
                    Area = 0.315209 mm^2
                    Peak Dynamic Power = 0.0124784 W
                    Subthreshold Leakage Power = 0.00218421 W
                    Gate Leakage Power = 0.000109941 W
                    Runtime Dynamic Power = 2.65e-05 W
                    Runtime Dynamic Energy = 3.00109e-05 J
                    Total Runtime Energy = 0.00262811 J

                  Fill Buffer:
                    Area = 0.246043 mm^2
                    Peak Dynamic Power = 0.0110423 W
                    Subthreshold Leakage Power = 0.00195087 W
                    Gate Leakage Power = 9.82028e-05 W
                    Runtime Dynamic Power = 2.32434e-05 W
                    Runtime Dynamic Energy = 2.63228e-05 J
                    Total Runtime Energy = 0.00234687 J

                  Prefetch Buffer:
                    Area = 0.246043 mm^2
                    Peak Dynamic Power = 0.0110423 W
                    Subthreshold Leakage Power = 0.00195087 W
                    Gate Leakage Power = 9.82028e-05 W
                    Runtime Dynamic Power = 1.76792e-05 W
                    Runtime Dynamic Energy = 2.00214e-05 J
                    Total Runtime Energy = 0.00234057 J

              Store Queue:
                Area = 0.0492795 mm^2
                Peak Dynamic Power = 0.0144605 W
                Subthreshold Leakage Power = 0.00424307 W
                Gate Leakage Power = 0.000174072 W
                Runtime Dynamic Power = 0.00359441 W
                Runtime Dynamic Energy = 0.00407062 J
                Total Runtime Energy = 0.00907298 J

          Memory Management Unit:
            Area = 0.0640137 mm^2
            Peak Dynamic Power = 0.020655 W
            Subthreshold Leakage Power = 0.0107524 W
            Gate Leakage Power = 0.00041319 W
            Runtime Dynamic Power = 0.00621793 W
            Runtime Dynamic Energy = 0.00704173 J
            Total Runtime Energy = 0.0196866 J

              Instruction TLB:
                Area = 0.0196043 mm^2
                Peak Dynamic Power = 0.00880588 W
                Subthreshold Leakage Power = 0.00418736 W
                Gate Leakage Power = 0.000171372 W
                Runtime Dynamic Power = 0.00506229 W
                Runtime Dynamic Energy = 0.00573298 J
                Total Runtime Energy = 0.0106692 J

              Data TLB:
                Area = 0.0444093 mm^2
                Peak Dynamic Power = 0.0118492 W
                Subthreshold Leakage Power = 0.00656505 W
                Gate Leakage Power = 0.000241817 W
                Runtime Dynamic Power = 0.00115565 W
                Runtime Dynamic Energy = 0.00130875 J
                Total Runtime Energy = 0.00901745 J

          Execution Unit:
            Area = 2.22898 mm^2
            Peak Dynamic Power = 0.586365 W
            Subthreshold Leakage Power = 0.497274 W
            Gate Leakage Power = 0.0497488 W
            Runtime Dynamic Power = 0.0608411 W
            Runtime Dynamic Energy = 0.0689017 J
            Total Runtime Energy = 0.688398 J

              Int Bypass Data:
                Area = 0.00171352 mm^2
                Peak Dynamic Power = 0 W
                Subthreshold Leakage Power = 0 W
                Gate Leakage Power = 0 W
                Runtime Dynamic Power = 1.55291e-09 W
                Runtime Dynamic Energy = 1.75865e-09 J
                Total Runtime Energy = 1.75865e-09 J

              Int Bypass Tag:
                Area = 0.00021419 mm^2
                Peak Dynamic Power = 0 W
                Subthreshold Leakage Power = 0 W
                Gate Leakage Power = 0 W
                Runtime Dynamic Power = 1.94114e-10 W
                Runtime Dynamic Energy = 2.19832e-10 J
                Total Runtime Energy = 2.19832e-10 J

              Mul Bypass Data:
                Area = 0.00383958 mm^2
                Peak Dynamic Power = 0 W
                Subthreshold Leakage Power = 0 W
                Gate Leakage Power = 0 W
                Runtime Dynamic Power = 4.971e-10 W
                Runtime Dynamic Energy = 5.6296e-10 J
                Total Runtime Energy = 5.6296e-10 J

              Mul Bypass Tag:
                Area = 0.000319965 mm^2
                Peak Dynamic Power = 0 W
                Subthreshold Leakage Power = 0 W
                Gate Leakage Power = 0 W
                Runtime Dynamic Power = 4.1425e-11 W
                Runtime Dynamic Energy = 4.69133e-11 J
                Total Runtime Energy = 4.69133e-11 J

              FP Bypass Data:
                Area = 0.00547065 mm^2
                Peak Dynamic Power = 0 W
                Subthreshold Leakage Power = 0 W
                Gate Leakage Power = 0 W
                Runtime Dynamic Power = 1.41654e-09 W
                Runtime Dynamic Energy = 1.60421e-09 J
                Total Runtime Energy = 1.60421e-09 J

              FP Bypass Tag:
                Area = 0.00050165 mm^2
                Peak Dynamic Power = 0 W
                Subthreshold Leakage Power = 0 W
                Gate Leakage Power = 0 W
                Runtime Dynamic Power = 1.29895e-10 W
                Runtime Dynamic Energy = 1.47104e-10 J
                Total Runtime Energy = 1.47104e-10 J

              Register File Unit:
                Area = 0.0294128 mm^2
                Peak Dynamic Power = 0.0343622 W
                Subthreshold Leakage Power = 0.00191002 W
                Gate Leakage Power = 5.14853e-05 W
                Runtime Dynamic Power = 6.15791e-10 W
                Runtime Dynamic Energy = 6.97375e-10 J
                Total Runtime Energy = 0.00222139 J

                  Integer Register File:
                    Area = 0.0186223 mm^2
                    Peak Dynamic Power = 0.028914 W
                    Subthreshold Leakage Power = 0.000762251 W
                    Gate Leakage Power = 2.05735e-05 W
                    Runtime Dynamic Power = 4.86313e-10 W
                    Runtime Dynamic Energy = 5.50744e-10 J
                    Total Runtime Energy = 0.000886539 J

                  FP Register File:
                    Area = 0.0107906 mm^2
                    Peak Dynamic Power = 0.00544812 W
                    Subthreshold Leakage Power = 0.00114777 W
                    Gate Leakage Power = 3.09119e-05 W
                    Runtime Dynamic Power = 1.29477e-10 W
                    Runtime Dynamic Energy = 1.46631e-10 J
                    Total Runtime Energy = 0.00133485 J

              Integer ALU(s):
                Area = 0.138846 mm^2
                Peak Dynamic Power = 0.157715 W
                Subthreshold Leakage Power = 0.085206 W
                Gate Leakage Power = 0.00854828 W
                Runtime Dynamic Power = 0.0373819 W
                Runtime Dynamic Energy = 0.0423346 J
                Total Runtime Energy = 0.14851 J

              Floating Point Unit(s):
                Area = 1.8404 mm^2
                Peak Dynamic Power = 0.236573 W
                Subthreshold Leakage Power = 0.282349 W
                Gate Leakage Power = 0.0283266 W
                Runtime Dynamic Power = 0.0234591 W
                Runtime Dynamic Energy = 0.0265671 J
                Total Runtime Energy = 0.378404 J

              Multiply/Divide Unit(s):
                Area = 0.20827 mm^2
                Peak Dynamic Power = 0.157715 W
                Subthreshold Leakage Power = 0.127809 W
                Gate Leakage Power = 0.0128224 W
                Runtime Dynamic Power = 1.39264e-09 W
                Runtime Dynamic Energy = 1.57715e-09 J
                Total Runtime Energy = 0.159263 J

          Undifferentiated Core:
            Area = 0.528329 mm^2
            Peak Dynamic Power = 0 W
            Subthreshold Leakage Power = 0.16211 W
            Gate Leakage Power = 0.0162637 W
            Runtime Dynamic Power = 0 W
            Runtime Dynamic Energy = 0 J
            Total Runtime Energy = 0.202006 J

          Pipeline?:
            Area = 0.105346 mm^2
            Peak Dynamic Power = 0 W
            Subthreshold Leakage Power = 0.0863787 W
            Gate Leakage Power = 0.00920013 W
            Runtime Dynamic Power = 0.183322 W
            Runtime Dynamic Energy = 0.20761 J
            Total Runtime Energy = 0.315852 J

      Core 1:
        Area = 5.11302 mm^2
        Peak Dynamic Power = 0.725551 W
        Subthreshold Leakage Power = 0.910011 W
        Gate Leakage Power = 0.0793208 W
        Runtime Dynamic Power = 0.291961 W
        Runtime Dynamic Energy = 0.330642 J
        Total Runtime Energy = 1.45105 J

          Instruction Fetch Unit:
            Area = 1.07061 mm^2
            Peak Dynamic Power = 0.069507 W
            Subthreshold Leakage Power = 0.0768543 W
            Gate Leakage Power = 0.00183262 W
            Runtime Dynamic Power = 0.0452156 W
            Runtime Dynamic Energy = 0.0512061 J
            Total Runtime Energy = 0.140318 J

              Instruction Cache:
                Area = 1.06646 mm^2
                Peak Dynamic Power = 0.0345629 W
                Subthreshold Leakage Power = 0.0723979 W
                Gate Leakage Power = 0.00168831 W
                Runtime Dynamic Power = 0.0291774 W
                Runtime Dynamic Energy = 0.0330431 J
                Total Runtime Energy = 0.116945 J

                  Data and Tag Arrays:
                    Area = 0.259164 mm^2
                    Peak Dynamic Power = 0 W
                    Subthreshold Leakage Power = 0.066312 W
                    Gate Leakage Power = 0.00138196 W
                    Runtime Dynamic Power = 0.029171 W
                    Runtime Dynamic Energy = 0.0330358 J
                    Total Runtime Energy = 0.109698 J

                  Miss Buffer:
                    Area = 0.315209 mm^2
                    Peak Dynamic Power = 0.0124784 W
                    Subthreshold Leakage Power = 0.00218421 W
                    Gate Leakage Power = 0.000109941 W
                    Runtime Dynamic Power = 2.31648e-06 W
                    Runtime Dynamic Energy = 2.62339e-06 J
                    Total Runtime Energy = 0.00260072 J

                  Fill Buffer:
                    Area = 0.246043 mm^2
                    Peak Dynamic Power = 0.0110423 W
                    Subthreshold Leakage Power = 0.00195087 W
                    Gate Leakage Power = 9.82028e-05 W
                    Runtime Dynamic Power = 2.03181e-06 W
                    Runtime Dynamic Energy = 2.301e-06 J
                    Total Runtime Energy = 0.00232285 J

                  Prefetch Buffer:
                    Area = 0.246043 mm^2
                    Peak Dynamic Power = 0.0110423 W
                    Subthreshold Leakage Power = 0.00195087 W
                    Gate Leakage Power = 9.82028e-05 W
                    Runtime Dynamic Power = 2.03181e-06 W
                    Runtime Dynamic Energy = 2.301e-06 J
                    Total Runtime Energy = 0.00232285 J

              Instruction Buffer:
                Area = 0.00177465 mm^2
                Peak Dynamic Power = 0.00177346 W
                Subthreshold Leakage Power = 0.000334365 W
                Gate Leakage Power = 1.02451e-05 W
                Runtime Dynamic Power = 0.000813957 W
                Runtime Dynamic Energy = 0.000921796 J
                Total Runtime Energy = 0.00131206 J

              Instruction Opcode Decoder:
                Area = 0.000733115 mm^2
                Peak Dynamic Power = 0.0110556 W
                Subthreshold Leakage Power = 0.00127003 W
                Gate Leakage Power = 4.16647e-05 W
                Runtime Dynamic Power = 0.00507414 W
                Runtime Dynamic Energy = 0.0057464 J
                Total Runtime Energy = 0.00723188 J

              Instruction Operand Decoder:
                Area = 0.00018867 mm^2
                Peak Dynamic Power = 0.0110476 W
                Subthreshold Leakage Power = 0.00032028 W
                Gate Leakage Power = 1.08411e-05 W
                Runtime Dynamic Power = 0.00507046 W
                Runtime Dynamic Energy = 0.00574223 J
                Total Runtime Energy = 0.00611722 J

              Instruction Microcode Decoder:
                Area = 0.00144948 mm^2
                Peak Dynamic Power = 0.0110675 W
                Subthreshold Leakage Power = 0.00253168 W
                Gate Leakage Power = 8.15593e-05 W
                Runtime Dynamic Power = 0.00507959 W
                Runtime Dynamic Energy = 0.00575257 J
                Total Runtime Energy = 0.00871203 J

          Load/Store Unit:
            Area = 1.11574 mm^2
            Peak Dynamic Power = 0.0490235 W
            Subthreshold Leakage Power = 0.076641 W
            Gate Leakage Power = 0.00186238 W
            Runtime Dynamic Power = 0.00995411 W
            Runtime Dynamic Energy = 0.0112729 J
            Total Runtime Energy = 0.100177 J

              Data Cache:
                Area = 1.06646 mm^2
                Peak Dynamic Power = 0.0345629 W
                Subthreshold Leakage Power = 0.0723979 W
                Gate Leakage Power = 0.00168831 W
                Runtime Dynamic Power = 0.00705494 W
                Runtime Dynamic Energy = 0.00798963 J
                Total Runtime Energy = 0.0918914 J

                  Data and Tag Arrays:
                    Area = 0.259164 mm^2
                    Peak Dynamic Power = 0 W
                    Subthreshold Leakage Power = 0.066312 W
                    Gate Leakage Power = 0.00138196 W
                    Runtime Dynamic Power = 0.00699941 W
                    Runtime Dynamic Energy = 0.00792674 J
                    Total Runtime Energy = 0.0845893 J

                  Miss Buffer:
                    Area = 0.315209 mm^2
                    Peak Dynamic Power = 0.0124784 W
                    Subthreshold Leakage Power = 0.00218421 W
                    Gate Leakage Power = 0.000109941 W
                    Runtime Dynamic Power = 2.1951e-05 W
                    Runtime Dynamic Energy = 2.48593e-05 J
                    Total Runtime Energy = 0.00262296 J

                  Fill Buffer:
                    Area = 0.246043 mm^2
                    Peak Dynamic Power = 0.0110423 W
                    Subthreshold Leakage Power = 0.00195087 W
                    Gate Leakage Power = 9.82028e-05 W
                    Runtime Dynamic Power = 1.92534e-05 W
                    Runtime Dynamic Energy = 2.18043e-05 J
                    Total Runtime Energy = 0.00234235 J

                  Prefetch Buffer:
                    Area = 0.246043 mm^2
                    Peak Dynamic Power = 0.0110423 W
                    Subthreshold Leakage Power = 0.00195087 W
                    Gate Leakage Power = 9.82028e-05 W
                    Runtime Dynamic Power = 1.43286e-05 W
                    Runtime Dynamic Energy = 1.6227e-05 J
                    Total Runtime Energy = 0.00233678 J

              Store Queue:
                Area = 0.0492795 mm^2
                Peak Dynamic Power = 0.0144605 W
                Subthreshold Leakage Power = 0.00424307 W
                Gate Leakage Power = 0.000174072 W
                Runtime Dynamic Power = 0.00289917 W
                Runtime Dynamic Energy = 0.00328327 J
                Total Runtime Energy = 0.00828562 J

          Memory Management Unit:
            Area = 0.0640137 mm^2
            Peak Dynamic Power = 0.020655 W
            Subthreshold Leakage Power = 0.0107524 W
            Gate Leakage Power = 0.00041319 W
            Runtime Dynamic Power = 0.0049185 W
            Runtime Dynamic Energy = 0.00557014 J
            Total Runtime Energy = 0.018215 J

              Instruction TLB:
                Area = 0.0196043 mm^2
                Peak Dynamic Power = 0.00880588 W
                Subthreshold Leakage Power = 0.00418736 W
                Gate Leakage Power = 0.000171372 W
                Runtime Dynamic Power = 0.00400059 W
                Runtime Dynamic Energy = 0.00453062 J
                Total Runtime Energy = 0.00946683 J

              Data TLB:
                Area = 0.0444093 mm^2
                Peak Dynamic Power = 0.0118492 W
                Subthreshold Leakage Power = 0.00656505 W
                Gate Leakage Power = 0.000241817 W
                Runtime Dynamic Power = 0.000917911 W
                Runtime Dynamic Energy = 0.00103952 J
                Total Runtime Energy = 0.00874822 J

          Execution Unit:
            Area = 2.22898 mm^2
            Peak Dynamic Power = 0.586365 W
            Subthreshold Leakage Power = 0.497274 W
            Gate Leakage Power = 0.0497488 W
            Runtime Dynamic Power = 0.048551 W
            Runtime Dynamic Energy = 0.0549834 J
            Total Runtime Energy = 0.67448 J

              Int Bypass Data:
                Area = 0.00171352 mm^2
                Peak Dynamic Power = 0 W
                Subthreshold Leakage Power = 0 W
                Gate Leakage Power = 0 W
                Runtime Dynamic Power = 1.55291e-09 W
                Runtime Dynamic Energy = 1.75865e-09 J
                Total Runtime Energy = 1.75865e-09 J

              Int Bypass Tag:
                Area = 0.00021419 mm^2
                Peak Dynamic Power = 0 W
                Subthreshold Leakage Power = 0 W
                Gate Leakage Power = 0 W
                Runtime Dynamic Power = 1.94114e-10 W
                Runtime Dynamic Energy = 2.19832e-10 J
                Total Runtime Energy = 2.19832e-10 J

              Mul Bypass Data:
                Area = 0.00383958 mm^2
                Peak Dynamic Power = 0 W
                Subthreshold Leakage Power = 0 W
                Gate Leakage Power = 0 W
                Runtime Dynamic Power = 4.971e-10 W
                Runtime Dynamic Energy = 5.6296e-10 J
                Total Runtime Energy = 5.6296e-10 J

              Mul Bypass Tag:
                Area = 0.000319965 mm^2
                Peak Dynamic Power = 0 W
                Subthreshold Leakage Power = 0 W
                Gate Leakage Power = 0 W
                Runtime Dynamic Power = 4.1425e-11 W
                Runtime Dynamic Energy = 4.69133e-11 J
                Total Runtime Energy = 4.69133e-11 J

              FP Bypass Data:
                Area = 0.00547065 mm^2
                Peak Dynamic Power = 0 W
                Subthreshold Leakage Power = 0 W
                Gate Leakage Power = 0 W
                Runtime Dynamic Power = 1.41654e-09 W
                Runtime Dynamic Energy = 1.60421e-09 J
                Total Runtime Energy = 1.60421e-09 J

              FP Bypass Tag:
                Area = 0.00050165 mm^2
                Peak Dynamic Power = 0 W
                Subthreshold Leakage Power = 0 W
                Gate Leakage Power = 0 W
                Runtime Dynamic Power = 1.29895e-10 W
                Runtime Dynamic Energy = 1.47104e-10 J
                Total Runtime Energy = 1.47104e-10 J

              Register File Unit:
                Area = 0.0294128 mm^2
                Peak Dynamic Power = 0.0343622 W
                Subthreshold Leakage Power = 0.00191002 W
                Gate Leakage Power = 5.14853e-05 W
                Runtime Dynamic Power = 6.15791e-10 W
                Runtime Dynamic Energy = 6.97375e-10 J
                Total Runtime Energy = 0.00222139 J

                  Integer Register File:
                    Area = 0.0186223 mm^2
                    Peak Dynamic Power = 0.028914 W
                    Subthreshold Leakage Power = 0.000762251 W
                    Gate Leakage Power = 2.05735e-05 W
                    Runtime Dynamic Power = 4.86313e-10 W
                    Runtime Dynamic Energy = 5.50744e-10 J
                    Total Runtime Energy = 0.000886539 J

                  FP Register File:
                    Area = 0.0107906 mm^2
                    Peak Dynamic Power = 0.00544812 W
                    Subthreshold Leakage Power = 0.00114777 W
                    Gate Leakage Power = 3.09119e-05 W
                    Runtime Dynamic Power = 1.29477e-10 W
                    Runtime Dynamic Energy = 1.46631e-10 J
                    Total Runtime Energy = 0.00133485 J

              Integer ALU(s):
                Area = 0.138846 mm^2
                Peak Dynamic Power = 0.157715 W
                Subthreshold Leakage Power = 0.085206 W
                Gate Leakage Power = 0.00854828 W
                Runtime Dynamic Power = 0.0300139 W
                Runtime Dynamic Energy = 0.0339904 J
                Total Runtime Energy = 0.140166 J

              Floating Point Unit(s):
                Area = 1.8404 mm^2
                Peak Dynamic Power = 0.236573 W
                Subthreshold Leakage Power = 0.282349 W
                Gate Leakage Power = 0.0283266 W
                Runtime Dynamic Power = 0.0185371 W
                Runtime Dynamic Energy = 0.020993 J
                Total Runtime Energy = 0.372829 J

              Multiply/Divide Unit(s):
                Area = 0.20827 mm^2
                Peak Dynamic Power = 0.157715 W
                Subthreshold Leakage Power = 0.127809 W
                Gate Leakage Power = 0.0128224 W
                Runtime Dynamic Power = 1.39264e-09 W
                Runtime Dynamic Energy = 1.57715e-09 J
                Total Runtime Energy = 0.159263 J

          Undifferentiated Core:
            Area = 0.528329 mm^2
            Peak Dynamic Power = 0 W
            Subthreshold Leakage Power = 0.16211 W
            Gate Leakage Power = 0.0162637 W
            Runtime Dynamic Power = 0 W
            Runtime Dynamic Energy = 0 J
            Total Runtime Energy = 0.202006 J

          Pipeline?:
            Area = 0.105346 mm^2
            Peak Dynamic Power = 0 W
            Subthreshold Leakage Power = 0.0863787 W
            Gate Leakage Power = 0.00920013 W
            Runtime Dynamic Power = 0.183322 W
            Runtime Dynamic Energy = 0.20761 J
            Total Runtime Energy = 0.315852 J

      Core 2:
        Area = 5.11302 mm^2
        Peak Dynamic Power = 0.725551 W
        Subthreshold Leakage Power = 0.910011 W
        Gate Leakage Power = 0.0793208 W
        Runtime Dynamic Power = 0.381062 W
        Runtime Dynamic Energy = 0.431548 J
        Total Runtime Energy = 1.55195 J

          Instruction Fetch Unit:
            Area = 1.07061 mm^2
            Peak Dynamic Power = 0.069507 W
            Subthreshold Leakage Power = 0.0768543 W
            Gate Leakage Power = 0.00183262 W
            Runtime Dynamic Power = 0.0802272 W
            Runtime Dynamic Energy = 0.0908562 J
            Total Runtime Energy = 0.179968 J

              Instruction Cache:
                Area = 1.06646 mm^2
                Peak Dynamic Power = 0.0345629 W
                Subthreshold Leakage Power = 0.0723979 W
                Gate Leakage Power = 0.00168831 W
                Runtime Dynamic Power = 0.0515488 W
                Runtime Dynamic Energy = 0.0583784 J
                Total Runtime Energy = 0.14228 J

                  Data and Tag Arrays:
                    Area = 0.259164 mm^2
                    Peak Dynamic Power = 0 W
                    Subthreshold Leakage Power = 0.066312 W
                    Gate Leakage Power = 0.00138196 W
                    Runtime Dynamic Power = 0.0515412 W
                    Runtime Dynamic Energy = 0.0583697 J
                    Total Runtime Energy = 0.135032 J

                  Miss Buffer:
                    Area = 0.315209 mm^2
                    Peak Dynamic Power = 0.0124784 W
                    Subthreshold Leakage Power = 0.00218421 W
                    Gate Leakage Power = 0.000109941 W
                    Runtime Dynamic Power = 2.76982e-06 W
                    Runtime Dynamic Energy = 3.13679e-06 J
                    Total Runtime Energy = 0.00260124 J

                  Fill Buffer:
                    Area = 0.246043 mm^2
                    Peak Dynamic Power = 0.0110423 W
                    Subthreshold Leakage Power = 0.00195087 W
                    Gate Leakage Power = 9.82028e-05 W
                    Runtime Dynamic Power = 2.42943e-06 W
                    Runtime Dynamic Energy = 2.7513e-06 J
                    Total Runtime Energy = 0.0023233 J

                  Prefetch Buffer:
                    Area = 0.246043 mm^2
                    Peak Dynamic Power = 0.0110423 W
                    Subthreshold Leakage Power = 0.00195087 W
                    Gate Leakage Power = 9.82028e-05 W
                    Runtime Dynamic Power = 2.42943e-06 W
                    Runtime Dynamic Energy = 2.7513e-06 J
                    Total Runtime Energy = 0.0023233 J

              Instruction Buffer:
                Area = 0.00177465 mm^2
                Peak Dynamic Power = 0.00177346 W
                Subthreshold Leakage Power = 0.000334365 W
                Gate Leakage Power = 1.02451e-05 W
                Runtime Dynamic Power = 0.00145546 W
                Runtime Dynamic Energy = 0.0016483 J
                Total Runtime Energy = 0.00203856 J

              Instruction Opcode Decoder:
                Area = 0.000733115 mm^2
                Peak Dynamic Power = 0.0110556 W
                Subthreshold Leakage Power = 0.00127003 W
                Gate Leakage Power = 4.16647e-05 W
                Runtime Dynamic Power = 0.00907324 W
                Runtime Dynamic Energy = 0.0102753 J
                Total Runtime Energy = 0.0117608 J

              Instruction Operand Decoder:
                Area = 0.00018867 mm^2
                Peak Dynamic Power = 0.0110476 W
                Subthreshold Leakage Power = 0.00032028 W
                Gate Leakage Power = 1.08411e-05 W
                Runtime Dynamic Power = 0.00906667 W
                Runtime Dynamic Energy = 0.0102679 J
                Total Runtime Energy = 0.0106429 J

              Instruction Microcode Decoder:
                Area = 0.00144948 mm^2
                Peak Dynamic Power = 0.0110675 W
                Subthreshold Leakage Power = 0.00253168 W
                Gate Leakage Power = 8.15593e-05 W
                Runtime Dynamic Power = 0.009083 W
                Runtime Dynamic Energy = 0.0102864 J
                Total Runtime Energy = 0.0132458 J

          Load/Store Unit:
            Area = 1.11574 mm^2
            Peak Dynamic Power = 0.0490235 W
            Subthreshold Leakage Power = 0.076641 W
            Gate Leakage Power = 0.00186238 W
            Runtime Dynamic Power = 0.0182316 W
            Runtime Dynamic Energy = 0.0206471 J
            Total Runtime Energy = 0.109551 J

              Data Cache:
                Area = 1.06646 mm^2
                Peak Dynamic Power = 0.0345629 W
                Subthreshold Leakage Power = 0.0723979 W
                Gate Leakage Power = 0.00168831 W
                Runtime Dynamic Power = 0.0129426 W
                Runtime Dynamic Energy = 0.0146574 J
                Total Runtime Energy = 0.0985591 J

                  Data and Tag Arrays:
                    Area = 0.259164 mm^2
                    Peak Dynamic Power = 0 W
                    Subthreshold Leakage Power = 0.066312 W
                    Gate Leakage Power = 0.00138196 W
                    Runtime Dynamic Power = 0.0128369 W
                    Runtime Dynamic Energy = 0.0145377 J
                    Total Runtime Energy = 0.0912002 J

                  Miss Buffer:
                    Area = 0.315209 mm^2
                    Peak Dynamic Power = 0.0124784 W
                    Subthreshold Leakage Power = 0.00218421 W
                    Gate Leakage Power = 0.000109941 W
                    Runtime Dynamic Power = 4.10176e-05 W
                    Runtime Dynamic Energy = 4.64519e-05 J
                    Total Runtime Energy = 0.00264455 J

                  Fill Buffer:
                    Area = 0.246043 mm^2
                    Peak Dynamic Power = 0.0110423 W
                    Subthreshold Leakage Power = 0.00195087 W
                    Gate Leakage Power = 9.82028e-05 W
                    Runtime Dynamic Power = 3.59769e-05 W
                    Runtime Dynamic Energy = 4.07433e-05 J
                    Total Runtime Energy = 0.00236129 J

                  Prefetch Buffer:
                    Area = 0.246043 mm^2
                    Peak Dynamic Power = 0.0110423 W
                    Subthreshold Leakage Power = 0.00195087 W
                    Gate Leakage Power = 9.82028e-05 W
                    Runtime Dynamic Power = 2.8716e-05 W
                    Runtime Dynamic Energy = 3.25205e-05 J
                    Total Runtime Energy = 0.00235307 J

              Store Queue:
                Area = 0.0492795 mm^2
                Peak Dynamic Power = 0.0144605 W
                Subthreshold Leakage Power = 0.00424307 W
                Gate Leakage Power = 0.000174072 W
                Runtime Dynamic Power = 0.00528898 W
                Runtime Dynamic Energy = 0.0059897 J
                Total Runtime Energy = 0.0109921 J

          Memory Management Unit:
            Area = 0.0640137 mm^2
            Peak Dynamic Power = 0.020655 W
            Subthreshold Leakage Power = 0.0107524 W
            Gate Leakage Power = 0.00041319 W
            Runtime Dynamic Power = 0.00880792 W
            Runtime Dynamic Energy = 0.00997486 J
            Total Runtime Energy = 0.0226198 J

              Instruction TLB:
                Area = 0.0196043 mm^2
                Peak Dynamic Power = 0.00880588 W
                Subthreshold Leakage Power = 0.00418736 W
                Gate Leakage Power = 0.000171372 W
                Runtime Dynamic Power = 0.0071515 W
                Runtime Dynamic Energy = 0.00809899 J
                Total Runtime Energy = 0.0130352 J

              Data TLB:
                Area = 0.0444093 mm^2
                Peak Dynamic Power = 0.0118492 W
                Subthreshold Leakage Power = 0.00656505 W
                Gate Leakage Power = 0.000241817 W
                Runtime Dynamic Power = 0.00165642 W
                Runtime Dynamic Energy = 0.00187587 J
                Total Runtime Energy = 0.00958457 J

          Execution Unit:
            Area = 2.22898 mm^2
            Peak Dynamic Power = 0.586365 W
            Subthreshold Leakage Power = 0.497274 W
            Gate Leakage Power = 0.0497488 W
            Runtime Dynamic Power = 0.0904731 W
            Runtime Dynamic Energy = 0.10246 J
            Total Runtime Energy = 0.721956 J

              Int Bypass Data:
                Area = 0.00171352 mm^2
                Peak Dynamic Power = 0 W
                Subthreshold Leakage Power = 0 W
                Gate Leakage Power = 0 W
                Runtime Dynamic Power = 1.55291e-09 W
                Runtime Dynamic Energy = 1.75865e-09 J
                Total Runtime Energy = 1.75865e-09 J

              Int Bypass Tag:
                Area = 0.00021419 mm^2
                Peak Dynamic Power = 0 W
                Subthreshold Leakage Power = 0 W
                Gate Leakage Power = 0 W
                Runtime Dynamic Power = 1.94114e-10 W
                Runtime Dynamic Energy = 2.19832e-10 J
                Total Runtime Energy = 2.19832e-10 J

              Mul Bypass Data:
                Area = 0.00383958 mm^2
                Peak Dynamic Power = 0 W
                Subthreshold Leakage Power = 0 W
                Gate Leakage Power = 0 W
                Runtime Dynamic Power = 4.971e-10 W
                Runtime Dynamic Energy = 5.6296e-10 J
                Total Runtime Energy = 5.6296e-10 J

              Mul Bypass Tag:
                Area = 0.000319965 mm^2
                Peak Dynamic Power = 0 W
                Subthreshold Leakage Power = 0 W
                Gate Leakage Power = 0 W
                Runtime Dynamic Power = 4.1425e-11 W
                Runtime Dynamic Energy = 4.69133e-11 J
                Total Runtime Energy = 4.69133e-11 J

              FP Bypass Data:
                Area = 0.00547065 mm^2
                Peak Dynamic Power = 0 W
                Subthreshold Leakage Power = 0 W
                Gate Leakage Power = 0 W
                Runtime Dynamic Power = 1.41654e-09 W
                Runtime Dynamic Energy = 1.60421e-09 J
                Total Runtime Energy = 1.60421e-09 J

              FP Bypass Tag:
                Area = 0.00050165 mm^2
                Peak Dynamic Power = 0 W
                Subthreshold Leakage Power = 0 W
                Gate Leakage Power = 0 W
                Runtime Dynamic Power = 1.29895e-10 W
                Runtime Dynamic Energy = 1.47104e-10 J
                Total Runtime Energy = 1.47104e-10 J

              Register File Unit:
                Area = 0.0294128 mm^2
                Peak Dynamic Power = 0.0343622 W
                Subthreshold Leakage Power = 0.00191002 W
                Gate Leakage Power = 5.14853e-05 W
                Runtime Dynamic Power = 6.15791e-10 W
                Runtime Dynamic Energy = 6.97375e-10 J
                Total Runtime Energy = 0.00222139 J

                  Integer Register File:
                    Area = 0.0186223 mm^2
                    Peak Dynamic Power = 0.028914 W
                    Subthreshold Leakage Power = 0.000762251 W
                    Gate Leakage Power = 2.05735e-05 W
                    Runtime Dynamic Power = 4.86313e-10 W
                    Runtime Dynamic Energy = 5.50744e-10 J
                    Total Runtime Energy = 0.000886539 J

                  FP Register File:
                    Area = 0.0107906 mm^2
                    Peak Dynamic Power = 0.00544812 W
                    Subthreshold Leakage Power = 0.00114777 W
                    Gate Leakage Power = 3.09119e-05 W
                    Runtime Dynamic Power = 1.29477e-10 W
                    Runtime Dynamic Energy = 1.46631e-10 J
                    Total Runtime Energy = 0.00133485 J

              Integer ALU(s):
                Area = 0.138846 mm^2
                Peak Dynamic Power = 0.157715 W
                Subthreshold Leakage Power = 0.085206 W
                Gate Leakage Power = 0.00854828 W
                Runtime Dynamic Power = 0.0518402 W
                Runtime Dynamic Energy = 0.0587084 J
                Total Runtime Energy = 0.164884 J

              Floating Point Unit(s):
                Area = 1.8404 mm^2
                Peak Dynamic Power = 0.236573 W
                Subthreshold Leakage Power = 0.282349 W
                Gate Leakage Power = 0.0283266 W
                Runtime Dynamic Power = 0.0386329 W
                Runtime Dynamic Energy = 0.0437512 J
                Total Runtime Energy = 0.395588 J

              Multiply/Divide Unit(s):
                Area = 0.20827 mm^2
                Peak Dynamic Power = 0.157715 W
                Subthreshold Leakage Power = 0.127809 W
                Gate Leakage Power = 0.0128224 W
                Runtime Dynamic Power = 1.39264e-09 W
                Runtime Dynamic Energy = 1.57715e-09 J
                Total Runtime Energy = 0.159263 J

          Undifferentiated Core:
            Area = 0.528329 mm^2
            Peak Dynamic Power = 0 W
            Subthreshold Leakage Power = 0.16211 W
            Gate Leakage Power = 0.0162637 W
            Runtime Dynamic Power = 0 W
            Runtime Dynamic Energy = 0 J
            Total Runtime Energy = 0.202006 J

          Pipeline?:
            Area = 0.105346 mm^2
            Peak Dynamic Power = 0 W
            Subthreshold Leakage Power = 0.0863787 W
            Gate Leakage Power = 0.00920013 W
            Runtime Dynamic Power = 0.183322 W
            Runtime Dynamic Energy = 0.20761 J
            Total Runtime Energy = 0.315852 J

      Core 3:
        Area = 5.11302 mm^2
        Peak Dynamic Power = 0.725551 W
        Subthreshold Leakage Power = 0.910011 W
        Gate Leakage Power = 0.0793208 W
        Runtime Dynamic Power = 0.325426 W
        Runtime Dynamic Energy = 0.368541 J
        Total Runtime Energy = 1.48895 J

          Instruction Fetch Unit:
            Area = 1.07061 mm^2
            Peak Dynamic Power = 0.069507 W
            Subthreshold Leakage Power = 0.0768543 W
            Gate Leakage Power = 0.00183262 W
            Runtime Dynamic Power = 0.0590891 W
            Runtime Dynamic Energy = 0.0669177 J
            Total Runtime Energy = 0.15603 J

              Instruction Cache:
                Area = 1.06646 mm^2
                Peak Dynamic Power = 0.0345629 W
                Subthreshold Leakage Power = 0.0723979 W
                Gate Leakage Power = 0.00168831 W
                Runtime Dynamic Power = 0.0381268 W
                Runtime Dynamic Energy = 0.0431781 J
                Total Runtime Energy = 0.12708 J

                  Data and Tag Arrays:
                    Area = 0.259164 mm^2
                    Peak Dynamic Power = 0 W
                    Subthreshold Leakage Power = 0.066312 W
                    Gate Leakage Power = 0.00138196 W
                    Runtime Dynamic Power = 0.03812 W
                    Runtime Dynamic Energy = 0.0431704 J
                    Total Runtime Energy = 0.119833 J

                  Miss Buffer:
                    Area = 0.315209 mm^2
                    Peak Dynamic Power = 0.0124784 W
                    Subthreshold Leakage Power = 0.00218421 W
                    Gate Leakage Power = 0.000109941 W
                    Runtime Dynamic Power = 2.46931e-06 W
                    Runtime Dynamic Energy = 2.79647e-06 J
                    Total Runtime Energy = 0.0026009 J

                  Fill Buffer:
                    Area = 0.246043 mm^2
                    Peak Dynamic Power = 0.0110423 W
                    Subthreshold Leakage Power = 0.00195087 W
                    Gate Leakage Power = 9.82028e-05 W
                    Runtime Dynamic Power = 2.16585e-06 W
                    Runtime Dynamic Energy = 2.4528e-06 J
                    Total Runtime Energy = 0.002323 J

                  Prefetch Buffer:
                    Area = 0.246043 mm^2
                    Peak Dynamic Power = 0.0110423 W
                    Subthreshold Leakage Power = 0.00195087 W
                    Gate Leakage Power = 9.82028e-05 W
                    Runtime Dynamic Power = 2.16585e-06 W
                    Runtime Dynamic Energy = 2.4528e-06 J
                    Total Runtime Energy = 0.002323 J

              Instruction Buffer:
                Area = 0.00177465 mm^2
                Peak Dynamic Power = 0.00177346 W
                Subthreshold Leakage Power = 0.000334365 W
                Gate Leakage Power = 1.02451e-05 W
                Runtime Dynamic Power = 0.00106387 W
                Runtime Dynamic Energy = 0.00120482 J
                Total Runtime Energy = 0.00159508 J

              Instruction Opcode Decoder:
                Area = 0.000733115 mm^2
                Peak Dynamic Power = 0.0110556 W
                Subthreshold Leakage Power = 0.00127003 W
                Gate Leakage Power = 4.16647e-05 W
                Runtime Dynamic Power = 0.00663205 W
                Runtime Dynamic Energy = 0.00751071 J
                Total Runtime Energy = 0.0089962 J

              Instruction Operand Decoder:
                Area = 0.00018867 mm^2
                Peak Dynamic Power = 0.0110476 W
                Subthreshold Leakage Power = 0.00032028 W
                Gate Leakage Power = 1.08411e-05 W
                Runtime Dynamic Power = 0.00662725 W
                Runtime Dynamic Energy = 0.00750527 J
                Total Runtime Energy = 0.00788026 J

              Instruction Microcode Decoder:
                Area = 0.00144948 mm^2
                Peak Dynamic Power = 0.0110675 W
                Subthreshold Leakage Power = 0.00253168 W
                Gate Leakage Power = 8.15593e-05 W
                Runtime Dynamic Power = 0.00663918 W
                Runtime Dynamic Energy = 0.00751879 J
                Total Runtime Energy = 0.0104782 J

          Load/Store Unit:
            Area = 1.11574 mm^2
            Peak Dynamic Power = 0.0490235 W
            Subthreshold Leakage Power = 0.076641 W
            Gate Leakage Power = 0.00186238 W
            Runtime Dynamic Power = 0.0130516 W
            Runtime Dynamic Energy = 0.0147808 J
            Total Runtime Energy = 0.103685 J

              Data Cache:
                Area = 1.06646 mm^2
                Peak Dynamic Power = 0.0345629 W
                Subthreshold Leakage Power = 0.0723979 W
                Gate Leakage Power = 0.00168831 W
                Runtime Dynamic Power = 0.00925676 W
                Runtime Dynamic Energy = 0.0104832 J
                Total Runtime Energy = 0.0943849 J

                  Data and Tag Arrays:
                    Area = 0.259164 mm^2
                    Peak Dynamic Power = 0 W
                    Subthreshold Leakage Power = 0.066312 W
                    Gate Leakage Power = 0.00138196 W
                    Runtime Dynamic Power = 0.00918144 W
                    Runtime Dynamic Energy = 0.0103979 J
                    Total Runtime Energy = 0.0870604 J

                  Miss Buffer:
                    Area = 0.315209 mm^2
                    Peak Dynamic Power = 0.0124784 W
                    Subthreshold Leakage Power = 0.00218421 W
                    Gate Leakage Power = 0.000109941 W
                    Runtime Dynamic Power = 2.97782e-05 W
                    Runtime Dynamic Energy = 3.37234e-05 J
                    Total Runtime Energy = 0.00263182 J

                  Fill Buffer:
                    Area = 0.246043 mm^2
                    Peak Dynamic Power = 0.0110423 W
                    Subthreshold Leakage Power = 0.00195087 W
                    Gate Leakage Power = 9.82028e-05 W
                    Runtime Dynamic Power = 2.61187e-05 W
                    Runtime Dynamic Energy = 2.95791e-05 J
                    Total Runtime Energy = 0.00235013 J

                  Prefetch Buffer:
                    Area = 0.246043 mm^2
                    Peak Dynamic Power = 0.0110423 W
                    Subthreshold Leakage Power = 0.00195087 W
                    Gate Leakage Power = 9.82028e-05 W
                    Runtime Dynamic Power = 1.94235e-05 W
                    Runtime Dynamic Energy = 2.19968e-05 J
                    Total Runtime Energy = 0.00234255 J

              Store Queue:
                Area = 0.0492795 mm^2
                Peak Dynamic Power = 0.0144605 W
                Subthreshold Leakage Power = 0.00424307 W
                Gate Leakage Power = 0.000174072 W
                Runtime Dynamic Power = 0.00379485 W
                Runtime Dynamic Energy = 0.00429761 J
                Total Runtime Energy = 0.00929997 J

          Memory Management Unit:
            Area = 0.0640137 mm^2
            Peak Dynamic Power = 0.020655 W
            Subthreshold Leakage Power = 0.0107524 W
            Gate Leakage Power = 0.00041319 W
            Runtime Dynamic Power = 0.00644852 W
            Runtime Dynamic Energy = 0.00730286 J
            Total Runtime Energy = 0.0199478 J

              Instruction TLB:
                Area = 0.0196043 mm^2
                Peak Dynamic Power = 0.00880588 W
                Subthreshold Leakage Power = 0.00418736 W
                Gate Leakage Power = 0.000171372 W
                Runtime Dynamic Power = 0.00524635 W
                Runtime Dynamic Energy = 0.00594142 J
                Total Runtime Energy = 0.0108776 J

              Data TLB:
                Area = 0.0444093 mm^2
                Peak Dynamic Power = 0.0118492 W
                Subthreshold Leakage Power = 0.00656505 W
                Gate Leakage Power = 0.000241817 W
                Runtime Dynamic Power = 0.00120217 W
                Runtime Dynamic Energy = 0.00136144 J
                Total Runtime Energy = 0.00907014 J

          Execution Unit:
            Area = 2.22898 mm^2
            Peak Dynamic Power = 0.586365 W
            Subthreshold Leakage Power = 0.497274 W
            Gate Leakage Power = 0.0497488 W
            Runtime Dynamic Power = 0.0635147 W
            Runtime Dynamic Energy = 0.0719296 J
            Total Runtime Energy = 0.691426 J

              Int Bypass Data:
                Area = 0.00171352 mm^2
                Peak Dynamic Power = 0 W
                Subthreshold Leakage Power = 0 W
                Gate Leakage Power = 0 W
                Runtime Dynamic Power = 1.55291e-09 W
                Runtime Dynamic Energy = 1.75865e-09 J
                Total Runtime Energy = 1.75865e-09 J

              Int Bypass Tag:
                Area = 0.00021419 mm^2
                Peak Dynamic Power = 0 W
                Subthreshold Leakage Power = 0 W
                Gate Leakage Power = 0 W
                Runtime Dynamic Power = 1.94114e-10 W
                Runtime Dynamic Energy = 2.19832e-10 J
                Total Runtime Energy = 2.19832e-10 J

              Mul Bypass Data:
                Area = 0.00383958 mm^2
                Peak Dynamic Power = 0 W
                Subthreshold Leakage Power = 0 W
                Gate Leakage Power = 0 W
                Runtime Dynamic Power = 4.971e-10 W
                Runtime Dynamic Energy = 5.6296e-10 J
                Total Runtime Energy = 5.6296e-10 J

              Mul Bypass Tag:
                Area = 0.000319965 mm^2
                Peak Dynamic Power = 0 W
                Subthreshold Leakage Power = 0 W
                Gate Leakage Power = 0 W
                Runtime Dynamic Power = 4.1425e-11 W
                Runtime Dynamic Energy = 4.69133e-11 J
                Total Runtime Energy = 4.69133e-11 J

              FP Bypass Data:
                Area = 0.00547065 mm^2
                Peak Dynamic Power = 0 W
                Subthreshold Leakage Power = 0 W
                Gate Leakage Power = 0 W
                Runtime Dynamic Power = 1.41654e-09 W
                Runtime Dynamic Energy = 1.60421e-09 J
                Total Runtime Energy = 1.60421e-09 J

              FP Bypass Tag:
                Area = 0.00050165 mm^2
                Peak Dynamic Power = 0 W
                Subthreshold Leakage Power = 0 W
                Gate Leakage Power = 0 W
                Runtime Dynamic Power = 1.29895e-10 W
                Runtime Dynamic Energy = 1.47104e-10 J
                Total Runtime Energy = 1.47104e-10 J

              Register File Unit:
                Area = 0.0294128 mm^2
                Peak Dynamic Power = 0.0343622 W
                Subthreshold Leakage Power = 0.00191002 W
                Gate Leakage Power = 5.14853e-05 W
                Runtime Dynamic Power = 6.15791e-10 W
                Runtime Dynamic Energy = 6.97375e-10 J
                Total Runtime Energy = 0.00222139 J

                  Integer Register File:
                    Area = 0.0186223 mm^2
                    Peak Dynamic Power = 0.028914 W
                    Subthreshold Leakage Power = 0.000762251 W
                    Gate Leakage Power = 2.05735e-05 W
                    Runtime Dynamic Power = 4.86313e-10 W
                    Runtime Dynamic Energy = 5.50744e-10 J
                    Total Runtime Energy = 0.000886539 J

                  FP Register File:
                    Area = 0.0107906 mm^2
                    Peak Dynamic Power = 0.00544812 W
                    Subthreshold Leakage Power = 0.00114777 W
                    Gate Leakage Power = 3.09119e-05 W
                    Runtime Dynamic Power = 1.29477e-10 W
                    Runtime Dynamic Energy = 1.46631e-10 J
                    Total Runtime Energy = 0.00133485 J

              Integer ALU(s):
                Area = 0.138846 mm^2
                Peak Dynamic Power = 0.157715 W
                Subthreshold Leakage Power = 0.085206 W
                Gate Leakage Power = 0.00854828 W
                Runtime Dynamic Power = 0.0392005 W
                Runtime Dynamic Energy = 0.0443941 J
                Total Runtime Energy = 0.15057 J

              Floating Point Unit(s):
                Area = 1.8404 mm^2
                Peak Dynamic Power = 0.236573 W
                Subthreshold Leakage Power = 0.282349 W
                Gate Leakage Power = 0.0283266 W
                Runtime Dynamic Power = 0.0243142 W
                Runtime Dynamic Energy = 0.0275355 J
                Total Runtime Energy = 0.379372 J

              Multiply/Divide Unit(s):
                Area = 0.20827 mm^2
                Peak Dynamic Power = 0.157715 W
                Subthreshold Leakage Power = 0.127809 W
                Gate Leakage Power = 0.0128224 W
                Runtime Dynamic Power = 1.39264e-09 W
                Runtime Dynamic Energy = 1.57715e-09 J
                Total Runtime Energy = 0.159263 J

          Undifferentiated Core:
            Area = 0.528329 mm^2
            Peak Dynamic Power = 0 W
            Subthreshold Leakage Power = 0.16211 W
            Gate Leakage Power = 0.0162637 W
            Runtime Dynamic Power = 0 W
            Runtime Dynamic Energy = 0 J
            Total Runtime Energy = 0.202006 J

          Pipeline?:
            Area = 0.105346 mm^2
            Peak Dynamic Power = 0 W
            Subthreshold Leakage Power = 0.0863787 W
            Gate Leakage Power = 0.00920013 W
            Runtime Dynamic Power = 0.183322 W
            Runtime Dynamic Energy = 0.20761 J
            Total Runtime Energy = 0.315852 J

      Core 4:
        Area = 5.11302 mm^2
        Peak Dynamic Power = 0.725551 W
        Subthreshold Leakage Power = 0.910011 W
        Gate Leakage Power = 0.0793208 W
        Runtime Dynamic Power = 0.309153 W
        Runtime Dynamic Energy = 0.350112 J
        Total Runtime Energy = 1.47052 J

          Instruction Fetch Unit:
            Area = 1.07061 mm^2
            Peak Dynamic Power = 0.069507 W
            Subthreshold Leakage Power = 0.0768543 W
            Gate Leakage Power = 0.00183262 W
            Runtime Dynamic Power = 0.0523059 W
            Runtime Dynamic Energy = 0.0592357 J
            Total Runtime Energy = 0.148348 J

              Instruction Cache:
                Area = 1.06646 mm^2
                Peak Dynamic Power = 0.0345629 W
                Subthreshold Leakage Power = 0.0723979 W
                Gate Leakage Power = 0.00168831 W
                Runtime Dynamic Power = 0.0337471 W
                Runtime Dynamic Energy = 0.0382182 J
                Total Runtime Energy = 0.12212 J

                  Data and Tag Arrays:
                    Area = 0.259164 mm^2
                    Peak Dynamic Power = 0 W
                    Subthreshold Leakage Power = 0.066312 W
                    Gate Leakage Power = 0.00138196 W
                    Runtime Dynamic Power = 0.0337432 W
                    Runtime Dynamic Energy = 0.0382138 J
                    Total Runtime Energy = 0.114876 J

                  Miss Buffer:
                    Area = 0.315209 mm^2
                    Peak Dynamic Power = 0.0124784 W
                    Subthreshold Leakage Power = 0.00218421 W
                    Gate Leakage Power = 0.000109941 W
                    Runtime Dynamic Power = 1.39883e-06 W
                    Runtime Dynamic Energy = 1.58416e-06 J
                    Total Runtime Energy = 0.00259969 J

                  Fill Buffer:
                    Area = 0.246043 mm^2
                    Peak Dynamic Power = 0.0110423 W
                    Subthreshold Leakage Power = 0.00195087 W
                    Gate Leakage Power = 9.82028e-05 W
                    Runtime Dynamic Power = 1.22693e-06 W
                    Runtime Dynamic Energy = 1.38948e-06 J
                    Total Runtime Energy = 0.00232194 J

                  Prefetch Buffer:
                    Area = 0.246043 mm^2
                    Peak Dynamic Power = 0.0110423 W
                    Subthreshold Leakage Power = 0.00195087 W
                    Gate Leakage Power = 9.82028e-05 W
                    Runtime Dynamic Power = 1.22693e-06 W
                    Runtime Dynamic Energy = 1.38948e-06 J
                    Total Runtime Energy = 0.00232194 J

              Instruction Buffer:
                Area = 0.00177465 mm^2
                Peak Dynamic Power = 0.00177346 W
                Subthreshold Leakage Power = 0.000334365 W
                Gate Leakage Power = 1.02451e-05 W
                Runtime Dynamic Power = 0.000941881 W
                Runtime Dynamic Energy = 0.00106667 J
                Total Runtime Energy = 0.00145694 J

              Instruction Opcode Decoder:
                Area = 0.000733115 mm^2
                Peak Dynamic Power = 0.0110556 W
                Subthreshold Leakage Power = 0.00127003 W
                Gate Leakage Power = 4.16647e-05 W
                Runtime Dynamic Power = 0.00587161 W
                Runtime Dynamic Energy = 0.00664952 J
                Total Runtime Energy = 0.008135 J

              Instruction Operand Decoder:
                Area = 0.00018867 mm^2
                Peak Dynamic Power = 0.0110476 W
                Subthreshold Leakage Power = 0.00032028 W
                Gate Leakage Power = 1.08411e-05 W
                Runtime Dynamic Power = 0.00586735 W
                Runtime Dynamic Energy = 0.0066447 J
                Total Runtime Energy = 0.00701969 J

              Instruction Microcode Decoder:
                Area = 0.00144948 mm^2
                Peak Dynamic Power = 0.0110675 W
                Subthreshold Leakage Power = 0.00253168 W
                Gate Leakage Power = 8.15593e-05 W
                Runtime Dynamic Power = 0.00587792 W
                Runtime Dynamic Energy = 0.00665667 J
                Total Runtime Energy = 0.00961613 J

          Load/Store Unit:
            Area = 1.11574 mm^2
            Peak Dynamic Power = 0.0490235 W
            Subthreshold Leakage Power = 0.076641 W
            Gate Leakage Power = 0.00186238 W
            Runtime Dynamic Power = 0.0113947 W
            Runtime Dynamic Energy = 0.0129043 J
            Total Runtime Energy = 0.101808 J

              Data Cache:
                Area = 1.06646 mm^2
                Peak Dynamic Power = 0.0345629 W
                Subthreshold Leakage Power = 0.0723979 W
                Gate Leakage Power = 0.00168831 W
                Runtime Dynamic Power = 0.00807032 W
                Runtime Dynamic Energy = 0.00913953 J
                Total Runtime Energy = 0.0930413 J

                  Data and Tag Arrays:
                    Area = 0.259164 mm^2
                    Peak Dynamic Power = 0 W
                    Subthreshold Leakage Power = 0.066312 W
                    Gate Leakage Power = 0.00138196 W
                    Runtime Dynamic Power = 0.00800978 W
                    Runtime Dynamic Energy = 0.00907098 J
                    Total Runtime Energy = 0.0857335 J

                  Miss Buffer:
                    Area = 0.315209 mm^2
                    Peak Dynamic Power = 0.0124784 W
                    Subthreshold Leakage Power = 0.00218421 W
                    Gate Leakage Power = 0.000109941 W
                    Runtime Dynamic Power = 2.38564e-05 W
                    Runtime Dynamic Energy = 2.7017e-05 J
                    Total Runtime Energy = 0.00262512 J

                  Fill Buffer:
                    Area = 0.246043 mm^2
                    Peak Dynamic Power = 0.0110423 W
                    Subthreshold Leakage Power = 0.00195087 W
                    Gate Leakage Power = 9.82028e-05 W
                    Runtime Dynamic Power = 2.09246e-05 W
                    Runtime Dynamic Energy = 2.36969e-05 J
                    Total Runtime Energy = 0.00234425 J

                  Prefetch Buffer:
                    Area = 0.246043 mm^2
                    Peak Dynamic Power = 0.0110423 W
                    Subthreshold Leakage Power = 0.00195087 W
                    Gate Leakage Power = 9.82028e-05 W
                    Runtime Dynamic Power = 1.57537e-05 W
                    Runtime Dynamic Energy = 1.78409e-05 J
                    Total Runtime Energy = 0.00233839 J

              Store Queue:
                Area = 0.0492795 mm^2
                Peak Dynamic Power = 0.0144605 W
                Subthreshold Leakage Power = 0.00424307 W
                Gate Leakage Power = 0.000174072 W
                Runtime Dynamic Power = 0.00332435 W
                Runtime Dynamic Energy = 0.00376479 J
                Total Runtime Energy = 0.00876714 J

          Memory Management Unit:
            Area = 0.0640137 mm^2
            Peak Dynamic Power = 0.020655 W
            Subthreshold Leakage Power = 0.0107524 W
            Gate Leakage Power = 0.00041319 W
            Runtime Dynamic Power = 0.00576189 W
            Runtime Dynamic Energy = 0.00652527 J
            Total Runtime Energy = 0.0191702 J

              Instruction TLB:
                Area = 0.0196043 mm^2
                Peak Dynamic Power = 0.00880588 W
                Subthreshold Leakage Power = 0.00418736 W
                Gate Leakage Power = 0.000171372 W
                Runtime Dynamic Power = 0.0046916 W
                Runtime Dynamic Energy = 0.00531318 J
                Total Runtime Energy = 0.0102494 J

              Data TLB:
                Area = 0.0444093 mm^2
                Peak Dynamic Power = 0.0118492 W
                Subthreshold Leakage Power = 0.00656505 W
                Gate Leakage Power = 0.000241817 W
                Runtime Dynamic Power = 0.00107029 W
                Runtime Dynamic Energy = 0.00121209 J
                Total Runtime Energy = 0.00892079 J

          Execution Unit:
            Area = 2.22898 mm^2
            Peak Dynamic Power = 0.586365 W
            Subthreshold Leakage Power = 0.497274 W
            Gate Leakage Power = 0.0497488 W
            Runtime Dynamic Power = 0.056369 W
            Runtime Dynamic Energy = 0.0638372 J
            Total Runtime Energy = 0.683334 J

              Int Bypass Data:
                Area = 0.00171352 mm^2
                Peak Dynamic Power = 0 W
                Subthreshold Leakage Power = 0 W
                Gate Leakage Power = 0 W
                Runtime Dynamic Power = 1.55291e-09 W
                Runtime Dynamic Energy = 1.75865e-09 J
                Total Runtime Energy = 1.75865e-09 J

              Int Bypass Tag:
                Area = 0.00021419 mm^2
                Peak Dynamic Power = 0 W
                Subthreshold Leakage Power = 0 W
                Gate Leakage Power = 0 W
                Runtime Dynamic Power = 1.94114e-10 W
                Runtime Dynamic Energy = 2.19832e-10 J
                Total Runtime Energy = 2.19832e-10 J

              Mul Bypass Data:
                Area = 0.00383958 mm^2
                Peak Dynamic Power = 0 W
                Subthreshold Leakage Power = 0 W
                Gate Leakage Power = 0 W
                Runtime Dynamic Power = 4.971e-10 W
                Runtime Dynamic Energy = 5.6296e-10 J
                Total Runtime Energy = 5.6296e-10 J

              Mul Bypass Tag:
                Area = 0.000319965 mm^2
                Peak Dynamic Power = 0 W
                Subthreshold Leakage Power = 0 W
                Gate Leakage Power = 0 W
                Runtime Dynamic Power = 4.1425e-11 W
                Runtime Dynamic Energy = 4.69133e-11 J
                Total Runtime Energy = 4.69133e-11 J

              FP Bypass Data:
                Area = 0.00547065 mm^2
                Peak Dynamic Power = 0 W
                Subthreshold Leakage Power = 0 W
                Gate Leakage Power = 0 W
                Runtime Dynamic Power = 1.41654e-09 W
                Runtime Dynamic Energy = 1.60421e-09 J
                Total Runtime Energy = 1.60421e-09 J

              FP Bypass Tag:
                Area = 0.00050165 mm^2
                Peak Dynamic Power = 0 W
                Subthreshold Leakage Power = 0 W
                Gate Leakage Power = 0 W
                Runtime Dynamic Power = 1.29895e-10 W
                Runtime Dynamic Energy = 1.47104e-10 J
                Total Runtime Energy = 1.47104e-10 J

              Register File Unit:
                Area = 0.0294128 mm^2
                Peak Dynamic Power = 0.0343622 W
                Subthreshold Leakage Power = 0.00191002 W
                Gate Leakage Power = 5.14853e-05 W
                Runtime Dynamic Power = 6.15791e-10 W
                Runtime Dynamic Energy = 6.97375e-10 J
                Total Runtime Energy = 0.00222139 J

                  Integer Register File:
                    Area = 0.0186223 mm^2
                    Peak Dynamic Power = 0.028914 W
                    Subthreshold Leakage Power = 0.000762251 W
                    Gate Leakage Power = 2.05735e-05 W
                    Runtime Dynamic Power = 4.86313e-10 W
                    Runtime Dynamic Energy = 5.50744e-10 J
                    Total Runtime Energy = 0.000886539 J

                  FP Register File:
                    Area = 0.0107906 mm^2
                    Peak Dynamic Power = 0.00544812 W
                    Subthreshold Leakage Power = 0.00114777 W
                    Gate Leakage Power = 3.09119e-05 W
                    Runtime Dynamic Power = 1.29477e-10 W
                    Runtime Dynamic Energy = 1.46631e-10 J
                    Total Runtime Energy = 0.00133485 J

              Integer ALU(s):
                Area = 0.138846 mm^2
                Peak Dynamic Power = 0.157715 W
                Subthreshold Leakage Power = 0.085206 W
                Gate Leakage Power = 0.00854828 W
                Runtime Dynamic Power = 0.0346372 W
                Runtime Dynamic Energy = 0.0392262 J
                Total Runtime Energy = 0.145402 J

              Floating Point Unit(s):
                Area = 1.8404 mm^2
                Peak Dynamic Power = 0.236573 W
                Subthreshold Leakage Power = 0.282349 W
                Gate Leakage Power = 0.0283266 W
                Runtime Dynamic Power = 0.0217318 W
                Runtime Dynamic Energy = 0.024611 J
                Total Runtime Energy = 0.376447 J

              Multiply/Divide Unit(s):
                Area = 0.20827 mm^2
                Peak Dynamic Power = 0.157715 W
                Subthreshold Leakage Power = 0.127809 W
                Gate Leakage Power = 0.0128224 W
                Runtime Dynamic Power = 1.39264e-09 W
                Runtime Dynamic Energy = 1.57715e-09 J
                Total Runtime Energy = 0.159263 J

          Undifferentiated Core:
            Area = 0.528329 mm^2
            Peak Dynamic Power = 0 W
            Subthreshold Leakage Power = 0.16211 W
            Gate Leakage Power = 0.0162637 W
            Runtime Dynamic Power = 0 W
            Runtime Dynamic Energy = 0 J
            Total Runtime Energy = 0.202006 J

          Pipeline?:
            Area = 0.105346 mm^2
            Peak Dynamic Power = 0 W
            Subthreshold Leakage Power = 0.0863787 W
            Gate Leakage Power = 0.00920013 W
            Runtime Dynamic Power = 0.183322 W
            Runtime Dynamic Energy = 0.20761 J
            Total Runtime Energy = 0.315852 J

      Core 5:
        Area = 5.11302 mm^2
        Peak Dynamic Power = 0.725551 W
        Subthreshold Leakage Power = 0.910011 W
        Gate Leakage Power = 0.0793208 W
        Runtime Dynamic Power = 0.303538 W
        Runtime Dynamic Energy = 0.343753 J
        Total Runtime Energy = 1.46416 J

          Instruction Fetch Unit:
            Area = 1.07061 mm^2
            Peak Dynamic Power = 0.069507 W
            Subthreshold Leakage Power = 0.0768543 W
            Gate Leakage Power = 0.00183262 W
            Runtime Dynamic Power = 0.0499599 W
            Runtime Dynamic Energy = 0.0565789 J
            Total Runtime Energy = 0.145691 J

              Instruction Cache:
                Area = 1.06646 mm^2
                Peak Dynamic Power = 0.0345629 W
                Subthreshold Leakage Power = 0.0723979 W
                Gate Leakage Power = 0.00168831 W
                Runtime Dynamic Power = 0.0322337 W
                Runtime Dynamic Energy = 0.0365043 J
                Total Runtime Energy = 0.120406 J

                  Data and Tag Arrays:
                    Area = 0.259164 mm^2
                    Peak Dynamic Power = 0 W
                    Subthreshold Leakage Power = 0.066312 W
                    Gate Leakage Power = 0.00138196 W
                    Runtime Dynamic Power = 0.0322282 W
                    Runtime Dynamic Energy = 0.036498 J
                    Total Runtime Energy = 0.113161 J

                  Miss Buffer:
                    Area = 0.315209 mm^2
                    Peak Dynamic Power = 0.0124784 W
                    Subthreshold Leakage Power = 0.00218421 W
                    Gate Leakage Power = 0.000109941 W
                    Runtime Dynamic Power = 1.99828e-06 W
                    Runtime Dynamic Energy = 2.26302e-06 J
                    Total Runtime Energy = 0.00260036 J

                  Fill Buffer:
                    Area = 0.246043 mm^2
                    Peak Dynamic Power = 0.0110423 W
                    Subthreshold Leakage Power = 0.00195087 W
                    Gate Leakage Power = 9.82028e-05 W
                    Runtime Dynamic Power = 1.75271e-06 W
                    Runtime Dynamic Energy = 1.98492e-06 J
                    Total Runtime Energy = 0.00232253 J

                  Prefetch Buffer:
                    Area = 0.246043 mm^2
                    Peak Dynamic Power = 0.0110423 W
                    Subthreshold Leakage Power = 0.00195087 W
                    Gate Leakage Power = 9.82028e-05 W
                    Runtime Dynamic Power = 1.75271e-06 W
                    Runtime Dynamic Energy = 1.98492e-06 J
                    Total Runtime Energy = 0.00232253 J

              Instruction Buffer:
                Area = 0.00177465 mm^2
                Peak Dynamic Power = 0.00177346 W
                Subthreshold Leakage Power = 0.000334365 W
                Gate Leakage Power = 1.02451e-05 W
                Runtime Dynamic Power = 0.000899626 W
                Runtime Dynamic Energy = 0.00101882 J
                Total Runtime Energy = 0.00140908 J

              Instruction Opcode Decoder:
                Area = 0.000733115 mm^2
                Peak Dynamic Power = 0.0110556 W
                Subthreshold Leakage Power = 0.00127003 W
                Gate Leakage Power = 4.16647e-05 W
                Runtime Dynamic Power = 0.00560819 W
                Runtime Dynamic Energy = 0.00635121 J
                Total Runtime Energy = 0.00783669 J

              Instruction Operand Decoder:
                Area = 0.00018867 mm^2
                Peak Dynamic Power = 0.0110476 W
                Subthreshold Leakage Power = 0.00032028 W
                Gate Leakage Power = 1.08411e-05 W
                Runtime Dynamic Power = 0.00560413 W
                Runtime Dynamic Energy = 0.00634661 J
                Total Runtime Energy = 0.0067216 J

              Instruction Microcode Decoder:
                Area = 0.00144948 mm^2
                Peak Dynamic Power = 0.0110675 W
                Subthreshold Leakage Power = 0.00253168 W
                Gate Leakage Power = 8.15593e-05 W
                Runtime Dynamic Power = 0.00561422 W
                Runtime Dynamic Energy = 0.00635803 J
                Total Runtime Energy = 0.00931749 J

          Load/Store Unit:
            Area = 1.11574 mm^2
            Peak Dynamic Power = 0.0490235 W
            Subthreshold Leakage Power = 0.076641 W
            Gate Leakage Power = 0.00186238 W
            Runtime Dynamic Power = 0.0109346 W
            Runtime Dynamic Energy = 0.0123833 J
            Total Runtime Energy = 0.101287 J

              Data Cache:
                Area = 1.06646 mm^2
                Peak Dynamic Power = 0.0345629 W
                Subthreshold Leakage Power = 0.0723979 W
                Gate Leakage Power = 0.00168831 W
                Runtime Dynamic Power = 0.00774731 W
                Runtime Dynamic Energy = 0.00877373 J
                Total Runtime Energy = 0.0926755 J

                  Data and Tag Arrays:
                    Area = 0.259164 mm^2
                    Peak Dynamic Power = 0 W
                    Subthreshold Leakage Power = 0.066312 W
                    Gate Leakage Power = 0.00138196 W
                    Runtime Dynamic Power = 0.00768778 W
                    Runtime Dynamic Energy = 0.00870632 J
                    Total Runtime Energy = 0.0853688 J

                  Miss Buffer:
                    Area = 0.315209 mm^2
                    Peak Dynamic Power = 0.0124784 W
                    Subthreshold Leakage Power = 0.00218421 W
                    Gate Leakage Power = 0.000109941 W
                    Runtime Dynamic Power = 2.34806e-05 W
                    Runtime Dynamic Energy = 2.65915e-05 J
                    Total Runtime Energy = 0.00262469 J

                  Fill Buffer:
                    Area = 0.246043 mm^2
                    Peak Dynamic Power = 0.0110423 W
                    Subthreshold Leakage Power = 0.00195087 W
                    Gate Leakage Power = 9.82028e-05 W
                    Runtime Dynamic Power = 2.0595e-05 W
                    Runtime Dynamic Energy = 2.33236e-05 J
                    Total Runtime Energy = 0.00234387 J

                  Prefetch Buffer:
                    Area = 0.246043 mm^2
                    Peak Dynamic Power = 0.0110423 W
                    Subthreshold Leakage Power = 0.00195087 W
                    Gate Leakage Power = 9.82028e-05 W
                    Runtime Dynamic Power = 1.5453e-05 W
                    Runtime Dynamic Energy = 1.75003e-05 J
                    Total Runtime Energy = 0.00233805 J

              Store Queue:
                Area = 0.0492795 mm^2
                Peak Dynamic Power = 0.0144605 W
                Subthreshold Leakage Power = 0.00424307 W
                Gate Leakage Power = 0.000174072 W
                Runtime Dynamic Power = 0.00318729 W
                Runtime Dynamic Energy = 0.00360956 J
                Total Runtime Energy = 0.00861191 J

          Memory Management Unit:
            Area = 0.0640137 mm^2
            Peak Dynamic Power = 0.020655 W
            Subthreshold Leakage Power = 0.0107524 W
            Gate Leakage Power = 0.00041319 W
            Runtime Dynamic Power = 0.00547913 W
            Runtime Dynamic Energy = 0.00620505 J
            Total Runtime Energy = 0.01885 J

              Instruction TLB:
                Area = 0.0196043 mm^2
                Peak Dynamic Power = 0.00880588 W
                Subthreshold Leakage Power = 0.00418736 W
                Gate Leakage Power = 0.000171372 W
                Runtime Dynamic Power = 0.00446118 W
                Runtime Dynamic Energy = 0.00505223 J
                Total Runtime Energy = 0.00998844 J

              Data TLB:
                Area = 0.0444093 mm^2
                Peak Dynamic Power = 0.0118492 W
                Subthreshold Leakage Power = 0.00656505 W
                Gate Leakage Power = 0.000241817 W
                Runtime Dynamic Power = 0.00101795 W
                Runtime Dynamic Energy = 0.00115282 J
                Total Runtime Energy = 0.00886151 J

          Execution Unit:
            Area = 2.22898 mm^2
            Peak Dynamic Power = 0.586365 W
            Subthreshold Leakage Power = 0.497274 W
            Gate Leakage Power = 0.0497488 W
            Runtime Dynamic Power = 0.0538423 W
            Runtime Dynamic Energy = 0.0609757 J
            Total Runtime Energy = 0.680472 J

              Int Bypass Data:
                Area = 0.00171352 mm^2
                Peak Dynamic Power = 0 W
                Subthreshold Leakage Power = 0 W
                Gate Leakage Power = 0 W
                Runtime Dynamic Power = 1.55291e-09 W
                Runtime Dynamic Energy = 1.75865e-09 J
                Total Runtime Energy = 1.75865e-09 J

              Int Bypass Tag:
                Area = 0.00021419 mm^2
                Peak Dynamic Power = 0 W
                Subthreshold Leakage Power = 0 W
                Gate Leakage Power = 0 W
                Runtime Dynamic Power = 1.94114e-10 W
                Runtime Dynamic Energy = 2.19832e-10 J
                Total Runtime Energy = 2.19832e-10 J

              Mul Bypass Data:
                Area = 0.00383958 mm^2
                Peak Dynamic Power = 0 W
                Subthreshold Leakage Power = 0 W
                Gate Leakage Power = 0 W
                Runtime Dynamic Power = 4.971e-10 W
                Runtime Dynamic Energy = 5.6296e-10 J
                Total Runtime Energy = 5.6296e-10 J

              Mul Bypass Tag:
                Area = 0.000319965 mm^2
                Peak Dynamic Power = 0 W
                Subthreshold Leakage Power = 0 W
                Gate Leakage Power = 0 W
                Runtime Dynamic Power = 4.1425e-11 W
                Runtime Dynamic Energy = 4.69133e-11 J
                Total Runtime Energy = 4.69133e-11 J

              FP Bypass Data:
                Area = 0.00547065 mm^2
                Peak Dynamic Power = 0 W
                Subthreshold Leakage Power = 0 W
                Gate Leakage Power = 0 W
                Runtime Dynamic Power = 1.41654e-09 W
                Runtime Dynamic Energy = 1.60421e-09 J
                Total Runtime Energy = 1.60421e-09 J

              FP Bypass Tag:
                Area = 0.00050165 mm^2
                Peak Dynamic Power = 0 W
                Subthreshold Leakage Power = 0 W
                Gate Leakage Power = 0 W
[...]
                Runtime Dynamic Power = 6.15791e-10 W
                Runtime Dynamic Energy = 6.97375e-10 J
                Total Runtime Energy = 0.00222139 J

                  Integer Register File:
                    Area = 0.0186223 mm^2
                    Peak Dynamic Power = 0.028914 W
                    Subthreshold Leakage Power = 0.000762251 W
                    Gate Leakage Power = 2.05735e-05 W
                    Runtime Dynamic Power = 4.86313e-10 W
                    Runtime Dynamic Energy = 5.50744e-10 J
                    Total Runtime Energy = 0.000886539 J

                  FP Register File:
                    Area = 0.0107906 mm^2
                    Peak Dynamic Power = 0.00544812 W
                    Subthreshold Leakage Power = 0.00114777 W
                    Gate Leakage Power = 3.09119e-05 W
                    Runtime Dynamic Power = 1.29477e-10 W
                    Runtime Dynamic Energy = 1.46631e-10 J
                    Total Runtime Energy = 0.00133485 J

              Integer ALU(s):
                Area = 0.138846 mm^2
                Peak Dynamic Power = 0.157715 W
                Subthreshold Leakage Power = 0.085206 W
                Gate Leakage Power = 0.00854828 W
                Runtime Dynamic Power = 0.029414 W
                Runtime Dynamic Energy = 0.033311 J
                Total Runtime Energy = 0.139487 J

              Floating Point Unit(s):
                Area = 1.8404 mm^2
                Peak Dynamic Power = 0.236573 W
                Subthreshold Leakage Power = 0.282349 W
                Gate Leakage Power = 0.0283266 W
                Runtime Dynamic Power = 0.0184695 W
                Runtime Dynamic Energy = 0.0209164 J
                Total Runtime Energy = 0.372753 J

              Multiply/Divide Unit(s):
                Area = 0.20827 mm^2
                Peak Dynamic Power = 0.157715 W
                Subthreshold Leakage Power = 0.127809 W
                Gate Leakage Power = 0.0128224 W
                Runtime Dynamic Power = 1.39264e-09 W
                Runtime Dynamic Energy = 1.57715e-09 J
                Total Runtime Energy = 0.159263 J

          Undifferentiated Core:
            Area = 0.528329 mm^2
            Peak Dynamic Power = 0 W
            Subthreshold Leakage Power = 0.16211 W
            Gate Leakage Power = 0.0162637 W
            Runtime Dynamic Power = 0 W
            Runtime Dynamic Energy = 0 J
            Total Runtime Energy = 0.202006 J

          Pipeline?:
            Area = 0.105346 mm^2
            Peak Dynamic Power = 0 W
            Subthreshold Leakage Power = 0.0863787 W
            Gate Leakage Power = 0.00920013 W
            Runtime Dynamic Power = 0.183322 W
            Runtime Dynamic Energy = 0.20761 J
            Total Runtime Energy = 0.315852 J

      Core 7:
        Area = 5.11302 mm^2
        Peak Dynamic Power = 0.725551 W
        Subthreshold Leakage Power = 0.910011 W
        Gate Leakage Power = 0.0793208 W
        Runtime Dynamic Power = 0.334337 W
        Runtime Dynamic Energy = 0.378632 J
        Total Runtime Energy = 1.49904 J

          Instruction Fetch Unit:
            Area = 1.07061 mm^2
            Peak Dynamic Power = 0.069507 W
            Subthreshold Leakage Power = 0.0768543 W
            Gate Leakage Power = 0.00183262 W
            Runtime Dynamic Power = 0.0627223 W
            Runtime Dynamic Energy = 0.0710322 J
            Total Runtime Energy = 0.160144 J

              Instruction Cache:
                Area = 1.06646 mm^2
                Peak Dynamic Power = 0.0345629 W
                Subthreshold Leakage Power = 0.0723979 W
                Gate Leakage Power = 0.00168831 W
                Runtime Dynamic Power = 0.0404615 W
                Runtime Dynamic Energy = 0.0458222 J
                Total Runtime Energy = 0.129724 J

                  Data and Tag Arrays:
                    Area = 0.259164 mm^2
                    Peak Dynamic Power = 0 W
                    Subthreshold Leakage Power = 0.066312 W
                    Gate Leakage Power = 0.00138196 W
                    Runtime Dynamic Power = 0.040457 W
                    Runtime Dynamic Energy = 0.045817 J
                    Total Runtime Energy = 0.12248 J

                  Miss Buffer:
                    Area = 0.315209 mm^2
                    Peak Dynamic Power = 0.0124784 W
                    Subthreshold Leakage Power = 0.00218421 W
                    Gate Leakage Power = 0.000109941 W
                    Runtime Dynamic Power = 1.6406e-06 W
                    Runtime Dynamic Energy = 1.85796e-06 J
                    Total Runtime Energy = 0.00259996 J

                  Fill Buffer:
                    Area = 0.246043 mm^2
                    Peak Dynamic Power = 0.0110423 W
                    Subthreshold Leakage Power = 0.00195087 W
                    Gate Leakage Power = 9.82028e-05 W
                    Runtime Dynamic Power = 1.43899e-06 W
                    Runtime Dynamic Energy = 1.62963e-06 J
                    Total Runtime Energy = 0.00232218 J

                  Prefetch Buffer:
                    Area = 0.246043 mm^2
                    Peak Dynamic Power = 0.0110423 W
                    Subthreshold Leakage Power = 0.00195087 W
                    Gate Leakage Power = 9.82028e-05 W
                    Runtime Dynamic Power = 1.43899e-06 W
                    Runtime Dynamic Energy = 1.62963e-06 J
                    Total Runtime Energy = 0.00232218 J

              Instruction Buffer:
                Area = 0.00177465 mm^2
                Peak Dynamic Power = 0.00177346 W
                Subthreshold Leakage Power = 0.000334365 W
                Gate Leakage Power = 1.02451e-05 W
                Runtime Dynamic Power = 0.00112976 W
                Runtime Dynamic Energy = 0.00127944 J
                Total Runtime Energy = 0.00166971 J

              Instruction Opcode Decoder:
                Area = 0.000733115 mm^2
                Peak Dynamic Power = 0.0110556 W
                Subthreshold Leakage Power = 0.00127003 W
                Gate Leakage Power = 4.16647e-05 W
                Runtime Dynamic Power = 0.00704284 W
                Runtime Dynamic Energy = 0.00797593 J
                Total Runtime Energy = 0.00946141 J

              Instruction Operand Decoder:
                Area = 0.00018867 mm^2
                Peak Dynamic Power = 0.0110476 W
                Subthreshold Leakage Power = 0.00032028 W
                Gate Leakage Power = 1.08411e-05 W
                Runtime Dynamic Power = 0.00703774 W
                Runtime Dynamic Energy = 0.00797015 J
                Total Runtime Energy = 0.00834514 J

              Instruction Microcode Decoder:
                Area = 0.00144948 mm^2
                Peak Dynamic Power = 0.0110675 W
                Subthreshold Leakage Power = 0.00253168 W
                Gate Leakage Power = 8.15593e-05 W
                Runtime Dynamic Power = 0.00705041 W
                Runtime Dynamic Energy = 0.0079845 J
                Total Runtime Energy = 0.010944 J

          Load/Store Unit:
            Area = 1.11574 mm^2
            Peak Dynamic Power = 0.0490235 W
            Subthreshold Leakage Power = 0.076641 W
            Gate Leakage Power = 0.00186238 W
            Runtime Dynamic Power = 0.0136723 W
            Runtime Dynamic Energy = 0.0154838 J
            Total Runtime Energy = 0.104388 J

              Data Cache:
                Area = 1.06646 mm^2
                Peak Dynamic Power = 0.0345629 W
                Subthreshold Leakage Power = 0.0723979 W
                Gate Leakage Power = 0.00168831 W
                Runtime Dynamic Power = 0.00968269 W
                Runtime Dynamic Energy = 0.0109655 J
                Total Runtime Energy = 0.0948673 J

                  Data and Tag Arrays:
                    Area = 0.259164 mm^2
                    Peak Dynamic Power = 0 W
                    Subthreshold Leakage Power = 0.066312 W
                    Gate Leakage Power = 0.00138196 W
                    Runtime Dynamic Power = 0.00961076 W
                    Runtime Dynamic Energy = 0.0108841 J
                    Total Runtime Energy = 0.0875466 J

                  Miss Buffer:
                    Area = 0.315209 mm^2
                    Peak Dynamic Power = 0.0124784 W
                    Subthreshold Leakage Power = 0.00218421 W
                    Gate Leakage Power = 0.000109941 W
                    Runtime Dynamic Power = 2.83555e-05 W
                    Runtime Dynamic Energy = 3.21122e-05 J
                    Total Runtime Energy = 0.00263021 J

                  Fill Buffer:
                    Area = 0.246043 mm^2
                    Peak Dynamic Power = 0.0110423 W
                    Subthreshold Leakage Power = 0.00195087 W
                    Gate Leakage Power = 9.82028e-05 W
                    Runtime Dynamic Power = 2.48708e-05 W
                    Runtime Dynamic Energy = 2.81659e-05 J
                    Total Runtime Energy = 0.00234872 J

                  Prefetch Buffer:
                    Area = 0.246043 mm^2
                    Peak Dynamic Power = 0.0110423 W
                    Subthreshold Leakage Power = 0.00195087 W
                    Gate Leakage Power = 9.82028e-05 W
                    Runtime Dynamic Power = 1.87038e-05 W
                    Runtime Dynamic Energy = 2.11818e-05 J
                    Total Runtime Energy = 0.00234173 J

              Store Queue:
                Area = 0.0492795 mm^2
                Peak Dynamic Power = 0.0144605 W
                Subthreshold Leakage Power = 0.00424307 W
                Gate Leakage Power = 0.000174072 W
                Runtime Dynamic Power = 0.00398965 W
                Runtime Dynamic Energy = 0.00451823 J
                Total Runtime Energy = 0.00952058 J

          Memory Management Unit:
            Area = 0.0640137 mm^2
            Peak Dynamic Power = 0.020655 W
            Subthreshold Leakage Power = 0.0107524 W
            Gate Leakage Power = 0.00041319 W
            Runtime Dynamic Power = 0.0069132 W
            Runtime Dynamic Energy = 0.00782911 J
            Total Runtime Energy = 0.020474 J

              Instruction TLB:
                Area = 0.0196043 mm^2
                Peak Dynamic Power = 0.00880588 W
                Subthreshold Leakage Power = 0.00418736 W
                Gate Leakage Power = 0.000171372 W
                Runtime Dynamic Power = 0.005628 W
                Runtime Dynamic Energy = 0.00637363 J
                Total Runtime Energy = 0.0113098 J

              Data TLB:
                Area = 0.0444093 mm^2
                Peak Dynamic Power = 0.0118492 W
                Subthreshold Leakage Power = 0.00656505 W
                Gate Leakage Power = 0.000241817 W
                Runtime Dynamic Power = 0.0012852 W
                Runtime Dynamic Energy = 0.00145548 J
                Total Runtime Energy = 0.00916417 J

          Execution Unit:
            Area = 2.22898 mm^2
            Peak Dynamic Power = 0.586365 W
            Subthreshold Leakage Power = 0.497274 W
            Gate Leakage Power = 0.0497488 W
            Runtime Dynamic Power = 0.0677068 W
            Runtime Dynamic Energy = 0.0766771 J
            Total Runtime Energy = 0.696174 J

              Int Bypass Data:
                Area = 0.00171352 mm^2
                Peak Dynamic Power = 0 W
                Subthreshold Leakage Power = 0 W
                Gate Leakage Power = 0 W
                Runtime Dynamic Power = 1.55291e-09 W
                Runtime Dynamic Energy = 1.75865e-09 J
                Total Runtime Energy = 1.75865e-09 J

              Int Bypass Tag:
                Area = 0.00021419 mm^2
                Peak Dynamic Power = 0 W
                Subthreshold Leakage Power = 0 W
                Gate Leakage Power = 0 W
                Runtime Dynamic Power = 1.94114e-10 W
                Runtime Dynamic Energy = 2.19832e-10 J
                Total Runtime Energy = 2.19832e-10 J

              Mul Bypass Data:
                Area = 0.00383958 mm^2
                Peak Dynamic Power = 0 W
                Subthreshold Leakage Power = 0 W
                Gate Leakage Power = 0 W
                Runtime Dynamic Power = 4.971e-10 W
                Runtime Dynamic Energy = 5.6296e-10 J
                Total Runtime Energy = 5.6296e-10 J

              Mul Bypass Tag:
                Area = 0.000319965 mm^2
                Peak Dynamic Power = 0 W
                Subthreshold Leakage Power = 0 W
                Gate Leakage Power = 0 W
                Runtime Dynamic Power = 4.1425e-11 W
                Runtime Dynamic Energy = 4.69133e-11 J
                Total Runtime Energy = 4.69133e-11 J

              FP Bypass Data:
                Area = 0.00547065 mm^2
                Peak Dynamic Power = 0 W
                Subthreshold Leakage Power = 0 W
                Gate Leakage Power = 0 W
                Runtime Dynamic Power = 1.41654e-09 W
                Runtime Dynamic Energy = 1.60421e-09 J
                Total Runtime Energy = 1.60421e-09 J

              FP Bypass Tag:
                Area = 0.00050165 mm^2
                Peak Dynamic Power = 0 W
                Subthreshold Leakage Power = 0 W
                Gate Leakage Power = 0 W
                Runtime Dynamic Power = 1.29895e-10 W
                Runtime Dynamic Energy = 1.47104e-10 J
                Total Runtime Energy = 1.47104e-10 J

              Register File Unit:
                Area = 0.0294128 mm^2
                Peak Dynamic Power = 0.0343622 W
                Subthreshold Leakage Power = 0.00191002 W
                Gate Leakage Power = 5.14853e-05 W
                Runtime Dynamic Power = 6.15791e-10 W
                Runtime Dynamic Energy = 6.97375e-10 J
                Total Runtime Energy = 0.00222139 J

                  Integer Register File:
                    Area = 0.0186223 mm^2
                    Peak Dynamic Power = 0.028914 W
                    Subthreshold Leakage Power = 0.000762251 W
                    Gate Leakage Power = 2.05735e-05 W
                    Runtime Dynamic Power = 4.86313e-10 W
                    Runtime Dynamic Energy = 5.50744e-10 J
                    Total Runtime Energy = 0.000886539 J

                  FP Register File:
                    Area = 0.0107906 mm^2
                    Peak Dynamic Power = 0.00544812 W
                    Subthreshold Leakage Power = 0.00114777 W
                    Gate Leakage Power = 3.09119e-05 W
                    Runtime Dynamic Power = 1.29477e-10 W
                    Runtime Dynamic Energy = 1.46631e-10 J
                    Total Runtime Energy = 0.00133485 J

              Integer ALU(s):
                Area = 0.138846 mm^2
                Peak Dynamic Power = 0.157715 W
                Subthreshold Leakage Power = 0.085206 W
                Gate Leakage Power = 0.00854828 W
                Runtime Dynamic Power = 0.0414996 W
                Runtime Dynamic Energy = 0.0469978 J
                Total Runtime Energy = 0.153173 J

              Floating Point Unit(s):
                Area = 1.8404 mm^2
                Peak Dynamic Power = 0.236573 W
                Subthreshold Leakage Power = 0.282349 W
                Gate Leakage Power = 0.0283266 W
                Runtime Dynamic Power = 0.0262072 W
                Runtime Dynamic Energy = 0.0296793 J
                Total Runtime Energy = 0.381516 J

              Multiply/Divide Unit(s):
                Area = 0.20827 mm^2
                Peak Dynamic Power = 0.157715 W
                Subthreshold Leakage Power = 0.127809 W
                Gate Leakage Power = 0.0128224 W
                Runtime Dynamic Power = 1.39264e-09 W
                Runtime Dynamic Energy = 1.57715e-09 J
                Total Runtime Energy = 0.159263 J

          Undifferentiated Core:
            Area = 0.528329 mm^2
            Peak Dynamic Power = 0 W
            Subthreshold Leakage Power = 0.16211 W
            Gate Leakage Power = 0.0162637 W
            Runtime Dynamic Power = 0 W
            Runtime Dynamic Energy = 0 J
            Total Runtime Energy = 0.202006 J

          Pipeline?:
            Area = 0.105346 mm^2
            Peak Dynamic Power = 0 W
            Subthreshold Leakage Power = 0.0863787 W
            Gate Leakage Power = 0.00920013 W
            Runtime Dynamic Power = 0.183322 W
            Runtime Dynamic Energy = 0.20761 J
            Total Runtime Energy = 0.315852 J

      L2 Cache:
        Area = 2.37413 mm^2
        Peak Dynamic Power = 0.0345629 W
        Subthreshold Leakage Power = 0.575086 W
        Gate Leakage Power = 0.016576 W
        Runtime Dynamic Power = 0.00615574 W
        Runtime Dynamic Energy = 0.00697129 J
        Total Runtime Energy = 0.677021 J

          Data and Tag Arrays:
            Area = 1.56684 mm^2
            Peak Dynamic Power = 0 W
            Subthreshold Leakage Power = 0.569 W
            Gate Leakage Power = 0.0162696 W
            Runtime Dynamic Power = 0.00594903 W
            Runtime Dynamic Energy = 0.0067372 J
            Total Runtime Energy = 0.669548 J

          Miss Buffer:
            Area = 0.315209 mm^2
            Peak Dynamic Power = 0.0124784 W
            Subthreshold Leakage Power = 0.00218421 W
            Gate Leakage Power = 0.000109941 W
            Runtime Dynamic Power = 8.35675e-05 W
            Runtime Dynamic Energy = 9.46391e-05 J
            Total Runtime Energy = 0.00269274 J

          Fill Buffer:
            Area = 0.246043 mm^2
            Peak Dynamic Power = 0.0110423 W
            Subthreshold Leakage Power = 0.00195087 W
            Gate Leakage Power = 9.82028e-05 W
            Runtime Dynamic Power = 7.32977e-05 W
            Runtime Dynamic Energy = 8.30087e-05 J
            Total Runtime Energy = 0.00240356 J

          Prefetch Buffer:
            Area = 0.246043 mm^2
            Peak Dynamic Power = 0.0110423 W
            Subthreshold Leakage Power = 0.00195087 W
            Gate Leakage Power = 9.82028e-05 W
            Runtime Dynamic Power = 4.98402e-05 W
            Runtime Dynamic Energy = 5.64434e-05 J
            Total Runtime Energy = 0.00237699 J

      L2 Cache:
        Area = 2.37413 mm^2
        Peak Dynamic Power = 0.0345629 W
        Subthreshold Leakage Power = 0.575086 W
        Gate Leakage Power = 0.016576 W
        Runtime Dynamic Power = 0.00475515 W
        Runtime Dynamic Energy = 0.00538514 J
        Total Runtime Energy = 0.675435 J

          Data and Tag Arrays:
            Area = 1.56684 mm^2
            Peak Dynamic Power = 0 W
            Subthreshold Leakage Power = 0.569 W
            Gate Leakage Power = 0.0162696 W
            Runtime Dynamic Power = 0.00460159 W
            Runtime Dynamic Energy = 0.00521124 J
            Total Runtime Energy = 0.668022 J

          Miss Buffer:
            Area = 0.315209 mm^2
            Peak Dynamic Power = 0.0124784 W
            Subthreshold Leakage Power = 0.00218421 W
            Gate Leakage Power = 0.000109941 W
            Runtime Dynamic Power = 6.30487e-05 W
            Runtime Dynamic Energy = 7.14018e-05 J
            Total Runtime Energy = 0.0026695 J

          Fill Buffer:
            Area = 0.246043 mm^2
            Peak Dynamic Power = 0.0110423 W
            Subthreshold Leakage Power = 0.00195087 W
            Gate Leakage Power = 9.82028e-05 W
            Runtime Dynamic Power = 5.53005e-05 W
            Runtime Dynamic Energy = 6.26272e-05 J
            Total Runtime Energy = 0.00238318 J

          Prefetch Buffer:
            Area = 0.246043 mm^2
            Peak Dynamic Power = 0.0110423 W
            Subthreshold Leakage Power = 0.00195087 W
            Gate Leakage Power = 9.82028e-05 W
            Runtime Dynamic Power = 3.52116e-05 W
            Runtime Dynamic Energy = 3.98767e-05 J
            Total Runtime Energy = 0.00236043 J

