
---------- Begin Simulation Statistics ----------
host_mem_usage                                 213148                       # Number of bytes of host memory used
host_seconds                                     0.50                       # Real time elapsed on the host
host_tick_rate                                 746373                       # Simulator tick rate (ticks/s)
sim_freq                                   1000000000                       # Frequency of simulated ticks
sim_seconds                                  0.000372                       # Number of seconds simulated
sim_ticks                                      372291                       # Number of ticks simulated

---------- End Simulation Statistics   ----------
