
---------- Begin Simulation Statistics ----------
sim_seconds                                 51.111166                       # Number of seconds simulated
sim_ticks                                51111166190000                       # Number of ticks simulated
final_tick                               51111166190000                       # Number of ticks from beginning of simulation (restored from checkpoints and never reset)
sim_freq                                 1000000000000                       # Frequency of simulated ticks
host_inst_rate                                1183514                       # Simulator instruction rate (inst/s)
host_op_rate                                  1390863                       # Simulator op (including micro ops) rate (op/s)
host_tick_rate                            61528862033                       # Simulator tick rate (ticks/s)
host_mem_usage                                 673932                       # Number of bytes of host memory used
host_seconds                                   830.69                       # Real time elapsed on the host
sim_insts                                   983128290                       # Number of instructions simulated
sim_ops                                    1155370468                       # Number of ops (including micro ops) simulated
system.voltage_domain.voltage                       1                       # Voltage in Volts
system.clk_domain.clock                          1000                       # Clock period in ticks
system.physmem.bytes_read::cpu0.dtb.walker       206080                       # Number of bytes read from this memory
system.physmem.bytes_read::cpu0.itb.walker       186880                       # Number of bytes read from this memory
system.physmem.bytes_read::cpu0.inst          3298228                       # Number of bytes read from this memory
system.physmem.bytes_read::cpu0.data         38035976                       # Number of bytes read from this memory
system.physmem.bytes_read::cpu1.dtb.walker       206656                       # Number of bytes read from this memory
system.physmem.bytes_read::cpu1.itb.walker       186304                       # Number of bytes read from this memory
system.physmem.bytes_read::cpu1.inst          2187520                       # Number of bytes read from this memory
system.physmem.bytes_read::cpu1.data         36841280                       # Number of bytes read from this memory
system.physmem.bytes_read::realview.ide        435200                       # Number of bytes read from this memory
system.physmem.bytes_read::total             81584124                       # Number of bytes read from this memory
system.physmem.bytes_inst_read::cpu0.inst      3298228                       # Number of instructions bytes read from this memory
system.physmem.bytes_inst_read::cpu1.inst      2187520                       # Number of instructions bytes read from this memory
system.physmem.bytes_inst_read::total         5485748                       # Number of instructions bytes read from this memory
system.physmem.bytes_written::writebacks    103274624                       # Number of bytes written to this memory
system.physmem.bytes_written::cpu0.data         20580                       # Number of bytes written to this memory
system.physmem.bytes_written::total         103295204                       # Number of bytes written to this memory
system.physmem.num_reads::cpu0.dtb.walker         3220                       # Number of read requests responded to by this memory
system.physmem.num_reads::cpu0.itb.walker         2920                       # Number of read requests responded to by this memory
system.physmem.num_reads::cpu0.inst             91942                       # Number of read requests responded to by this memory
system.physmem.num_reads::cpu0.data            594325                       # Number of read requests responded to by this memory
system.physmem.num_reads::cpu1.dtb.walker         3229                       # Number of read requests responded to by this memory
system.physmem.num_reads::cpu1.itb.walker         2911                       # Number of read requests responded to by this memory
system.physmem.num_reads::cpu1.inst             34180                       # Number of read requests responded to by this memory
system.physmem.num_reads::cpu1.data            575645                       # Number of read requests responded to by this memory
system.physmem.num_reads::realview.ide           6800                       # Number of read requests responded to by this memory
system.physmem.num_reads::total               1315172                       # Number of read requests responded to by this memory
system.physmem.num_writes::writebacks         1613666                       # Number of write requests responded to by this memory
system.physmem.num_writes::cpu0.data             2573                       # Number of write requests responded to by this memory
system.physmem.num_writes::total              1616239                       # Number of write requests responded to by this memory
system.physmem.bw_read::cpu0.dtb.walker          4032                       # Total read bandwidth from this memory (bytes/s)
system.physmem.bw_read::cpu0.itb.walker          3656                       # Total read bandwidth from this memory (bytes/s)
system.physmem.bw_read::cpu0.inst               64530                       # Total read bandwidth from this memory (bytes/s)
system.physmem.bw_read::cpu0.data              744181                       # Total read bandwidth from this memory (bytes/s)
system.physmem.bw_read::cpu1.dtb.walker          4043                       # Total read bandwidth from this memory (bytes/s)
system.physmem.bw_read::cpu1.itb.walker          3645                       # Total read bandwidth from this memory (bytes/s)
system.physmem.bw_read::cpu1.inst               42799                       # Total read bandwidth from this memory (bytes/s)
system.physmem.bw_read::cpu1.data              720807                       # Total read bandwidth from this memory (bytes/s)
system.physmem.bw_read::realview.ide             8515                       # Total read bandwidth from this memory (bytes/s)
system.physmem.bw_read::total                 1596209                       # Total read bandwidth from this memory (bytes/s)
system.physmem.bw_inst_read::cpu0.inst          64530                       # Instruction read bandwidth from this memory (bytes/s)
system.physmem.bw_inst_read::cpu1.inst          42799                       # Instruction read bandwidth from this memory (bytes/s)
system.physmem.bw_inst_read::total             107330                       # Instruction read bandwidth from this memory (bytes/s)
system.physmem.bw_write::writebacks           2020588                       # Write bandwidth from this memory (bytes/s)
system.physmem.bw_write::cpu0.data                403                       # Write bandwidth from this memory (bytes/s)
system.physmem.bw_write::total                2020991                       # Write bandwidth from this memory (bytes/s)
system.physmem.bw_total::writebacks           2020588                       # Total bandwidth to/from this memory (bytes/s)
system.physmem.bw_total::cpu0.dtb.walker         4032                       # Total bandwidth to/from this memory (bytes/s)
system.physmem.bw_total::cpu0.itb.walker         3656                       # Total bandwidth to/from this memory (bytes/s)
system.physmem.bw_total::cpu0.inst              64530                       # Total bandwidth to/from this memory (bytes/s)
system.physmem.bw_total::cpu0.data             744584                       # Total bandwidth to/from this memory (bytes/s)
system.physmem.bw_total::cpu1.dtb.walker         4043                       # Total bandwidth to/from this memory (bytes/s)
system.physmem.bw_total::cpu1.itb.walker         3645                       # Total bandwidth to/from this memory (bytes/s)
system.physmem.bw_total::cpu1.inst              42799                       # Total bandwidth to/from this memory (bytes/s)
system.physmem.bw_total::cpu1.data             720807                       # Total bandwidth to/from this memory (bytes/s)
system.physmem.bw_total::realview.ide            8515                       # Total bandwidth to/from this memory (bytes/s)
system.physmem.bw_total::total                3617200                       # Total bandwidth to/from this memory (bytes/s)
system.realview.nvmem.bytes_read::cpu0.inst           96                       # Number of bytes read from this memory
system.realview.nvmem.bytes_read::cpu0.data           36                       # Number of bytes read from this memory
system.realview.nvmem.bytes_read::total           132                       # Number of bytes read from this memory
system.realview.nvmem.bytes_inst_read::cpu0.inst           96                       # Number of instructions bytes read from this memory
system.realview.nvmem.bytes_inst_read::total           96                       # Number of instructions bytes read from this memory
system.realview.nvmem.num_reads::cpu0.inst           24                       # Number of read requests responded to by this memory
system.realview.nvmem.num_reads::cpu0.data            5                       # Number of read requests responded to by this memory
system.realview.nvmem.num_reads::total             29                       # Number of read requests responded to by this memory
system.realview.nvmem.bw_read::cpu0.inst            2                       # Total read bandwidth from this memory (bytes/s)
system.realview.nvmem.bw_read::cpu0.data            1                       # Total read bandwidth from this memory (bytes/s)
system.realview.nvmem.bw_read::total                3                       # Total read bandwidth from this memory (bytes/s)
system.realview.nvmem.bw_inst_read::cpu0.inst            2                       # Instruction read bandwidth from this memory (bytes/s)
system.realview.nvmem.bw_inst_read::total            2                       # Instruction read bandwidth from this memory (bytes/s)
system.realview.nvmem.bw_total::cpu0.inst            2                       # Total bandwidth to/from this memory (bytes/s)
system.realview.nvmem.bw_total::cpu0.data            1                       # Total bandwidth to/from this memory (bytes/s)
system.realview.nvmem.bw_total::total               3                       # Total bandwidth to/from this memory (bytes/s)
system.cf0.dma_read_full_pages                    122                       # Number of full page size DMA reads (not PRD).
system.cf0.dma_read_bytes                      499712                       # Number of bytes transfered via DMA reads (not PRD).
system.cf0.dma_read_txs                           122                       # Number of DMA read transactions (not PRD).
system.cf0.dma_write_full_pages                  1666                       # Number of full page size DMA writes.
system.cf0.dma_write_bytes                    6826496                       # Number of bytes transfered via DMA writes.
system.cf0.dma_write_txs                         1669                       # Number of DMA write transactions.
system.cpu_clk_domain.clock                       500                       # Clock period in ticks
system.cpu0.dstage2_mmu.stage2_tlb.walker.walks            0                       # Table walker walks requested
system.cpu0.dstage2_mmu.stage2_tlb.walker.walkRequestOrigin_Requested::Data            0                       # Table walker requests started/completed, data/inst
system.cpu0.dstage2_mmu.stage2_tlb.walker.walkRequestOrigin_Requested::Inst            0                       # Table walker requests started/completed, data/inst
system.cpu0.dstage2_mmu.stage2_tlb.walker.walkRequestOrigin_Requested::total            0                       # Table walker requests started/completed, data/inst
system.cpu0.dstage2_mmu.stage2_tlb.walker.walkRequestOrigin_Completed::Data            0                       # Table walker requests started/completed, data/inst
system.cpu0.dstage2_mmu.stage2_tlb.walker.walkRequestOrigin_Completed::Inst            0                       # Table walker requests started/completed, data/inst
system.cpu0.dstage2_mmu.stage2_tlb.walker.walkRequestOrigin_Completed::total            0                       # Table walker requests started/completed, data/inst
system.cpu0.dstage2_mmu.stage2_tlb.walker.walkRequestOrigin::total            0                       # Table walker requests started/completed, data/inst
system.cpu0.dstage2_mmu.stage2_tlb.inst_hits            0                       # ITB inst hits
system.cpu0.dstage2_mmu.stage2_tlb.inst_misses            0                       # ITB inst misses
system.cpu0.dstage2_mmu.stage2_tlb.read_hits            0                       # DTB read hits
system.cpu0.dstage2_mmu.stage2_tlb.read_misses            0                       # DTB read misses
system.cpu0.dstage2_mmu.stage2_tlb.write_hits            0                       # DTB write hits
system.cpu0.dstage2_mmu.stage2_tlb.write_misses            0                       # DTB write misses
system.cpu0.dstage2_mmu.stage2_tlb.flush_tlb            0                       # Number of times complete TLB was flushed
system.cpu0.dstage2_mmu.stage2_tlb.flush_tlb_mva            0                       # Number of times TLB was flushed by MVA
system.cpu0.dstage2_mmu.stage2_tlb.flush_tlb_mva_asid            0                       # Number of times TLB was flushed by MVA & ASID
system.cpu0.dstage2_mmu.stage2_tlb.flush_tlb_asid            0                       # Number of times TLB was flushed by ASID
system.cpu0.dstage2_mmu.stage2_tlb.flush_entries            0                       # Number of entries that have been flushed from TLB
system.cpu0.dstage2_mmu.stage2_tlb.align_faults            0                       # Number of TLB faults due to alignment restrictions
system.cpu0.dstage2_mmu.stage2_tlb.prefetch_faults            0                       # Number of TLB faults due to prefetch
system.cpu0.dstage2_mmu.stage2_tlb.domain_faults            0                       # Number of TLB faults due to domain restrictions
system.cpu0.dstage2_mmu.stage2_tlb.perms_faults            0                       # Number of TLB faults due to permissions restrictions
system.cpu0.dstage2_mmu.stage2_tlb.read_accesses            0                       # DTB read accesses
system.cpu0.dstage2_mmu.stage2_tlb.write_accesses            0                       # DTB write accesses
system.cpu0.dstage2_mmu.stage2_tlb.inst_accesses            0                       # ITB inst accesses
system.cpu0.dstage2_mmu.stage2_tlb.hits             0                       # DTB hits
system.cpu0.dstage2_mmu.stage2_tlb.misses            0                       # DTB misses
system.cpu0.dstage2_mmu.stage2_tlb.accesses            0                       # DTB accesses
system.cpu0.dtb.walker.walks                   145178                       # Table walker walks requested
system.cpu0.dtb.walker.walksLong               145178                       # Table walker walks initiated with long descriptors
system.cpu0.dtb.walker.walkWaitTime::samples       145178                       # Table walker wait (enqueue to first request) latency
system.cpu0.dtb.walker.walkWaitTime::0         145178    100.00%    100.00% # Table walker wait (enqueue to first request) latency
system.cpu0.dtb.walker.walkWaitTime::total       145178                       # Table walker wait (enqueue to first request) latency
system.cpu0.dtb.walker.walksPending::samples     22846000                       # Table walker pending requests distribution
system.cpu0.dtb.walker.walksPending::0       22846000    100.00%    100.00% # Table walker pending requests distribution
system.cpu0.dtb.walker.walksPending::total     22846000                       # Table walker pending requests distribution
system.cpu0.dtb.walker.walkPageSizes::4K       108127     85.58%     85.58% # Table walker page sizes translated
system.cpu0.dtb.walker.walkPageSizes::2M        18215     14.42%    100.00% # Table walker page sizes translated
system.cpu0.dtb.walker.walkPageSizes::total       126342                       # Table walker page sizes translated
system.cpu0.dtb.walker.walkRequestOrigin_Requested::Data       145178                       # Table walker requests started/completed, data/inst
system.cpu0.dtb.walker.walkRequestOrigin_Requested::Inst            0                       # Table walker requests started/completed, data/inst
system.cpu0.dtb.walker.walkRequestOrigin_Requested::total       145178                       # Table walker requests started/completed, data/inst
system.cpu0.dtb.walker.walkRequestOrigin_Completed::Data       126342                       # Table walker requests started/completed, data/inst
system.cpu0.dtb.walker.walkRequestOrigin_Completed::Inst            0                       # Table walker requests started/completed, data/inst
system.cpu0.dtb.walker.walkRequestOrigin_Completed::total       126342                       # Table walker requests started/completed, data/inst
system.cpu0.dtb.walker.walkRequestOrigin::total       271520                       # Table walker requests started/completed, data/inst
system.cpu0.dtb.inst_hits                           0                       # ITB inst hits
system.cpu0.dtb.inst_misses                         0                       # ITB inst misses
system.cpu0.dtb.read_hits                    91916513                       # DTB read hits
system.cpu0.dtb.read_misses                    107962                       # DTB read misses
system.cpu0.dtb.write_hits                   84123596                       # DTB write hits
system.cpu0.dtb.write_misses                    37216                       # DTB write misses
system.cpu0.dtb.flush_tlb                       51122                       # Number of times complete TLB was flushed
system.cpu0.dtb.flush_tlb_mva                       0                       # Number of times TLB was flushed by MVA
system.cpu0.dtb.flush_tlb_mva_asid              25185                       # Number of times TLB was flushed by MVA & ASID
system.cpu0.dtb.flush_tlb_asid                    570                       # Number of times TLB was flushed by ASID
system.cpu0.dtb.flush_entries                   56806                       # Number of entries that have been flushed from TLB
system.cpu0.dtb.align_faults                        0                       # Number of TLB faults due to alignment restrictions
system.cpu0.dtb.prefetch_faults                  4849                       # Number of TLB faults due to prefetch
system.cpu0.dtb.domain_faults                       0                       # Number of TLB faults due to domain restrictions
system.cpu0.dtb.perms_faults                    10952                       # Number of TLB faults due to permissions restrictions
system.cpu0.dtb.read_accesses                92024475                       # DTB read accesses
system.cpu0.dtb.write_accesses               84160812                       # DTB write accesses
system.cpu0.dtb.inst_accesses                       0                       # ITB inst accesses
system.cpu0.dtb.hits                        176040109                       # DTB hits
system.cpu0.dtb.misses                         145178                       # DTB misses
system.cpu0.dtb.accesses                    176185287                       # DTB accesses
system.cpu0.istage2_mmu.stage2_tlb.walker.walks            0                       # Table walker walks requested
system.cpu0.istage2_mmu.stage2_tlb.walker.walkRequestOrigin_Requested::Data            0                       # Table walker requests started/completed, data/inst
system.cpu0.istage2_mmu.stage2_tlb.walker.walkRequestOrigin_Requested::Inst            0                       # Table walker requests started/completed, data/inst
system.cpu0.istage2_mmu.stage2_tlb.walker.walkRequestOrigin_Requested::total            0                       # Table walker requests started/completed, data/inst
system.cpu0.istage2_mmu.stage2_tlb.walker.walkRequestOrigin_Completed::Data            0                       # Table walker requests started/completed, data/inst
system.cpu0.istage2_mmu.stage2_tlb.walker.walkRequestOrigin_Completed::Inst            0                       # Table walker requests started/completed, data/inst
system.cpu0.istage2_mmu.stage2_tlb.walker.walkRequestOrigin_Completed::total            0                       # Table walker requests started/completed, data/inst
system.cpu0.istage2_mmu.stage2_tlb.walker.walkRequestOrigin::total            0                       # Table walker requests started/completed, data/inst
system.cpu0.istage2_mmu.stage2_tlb.inst_hits            0                       # ITB inst hits
system.cpu0.istage2_mmu.stage2_tlb.inst_misses            0                       # ITB inst misses
system.cpu0.istage2_mmu.stage2_tlb.read_hits            0                       # DTB read hits
system.cpu0.istage2_mmu.stage2_tlb.read_misses            0                       # DTB read misses
system.cpu0.istage2_mmu.stage2_tlb.write_hits            0                       # DTB write hits
system.cpu0.istage2_mmu.stage2_tlb.write_misses            0                       # DTB write misses
system.cpu0.istage2_mmu.stage2_tlb.flush_tlb            0                       # Number of times complete TLB was flushed
system.cpu0.istage2_mmu.stage2_tlb.flush_tlb_mva            0                       # Number of times TLB was flushed by MVA
system.cpu0.istage2_mmu.stage2_tlb.flush_tlb_mva_asid            0                       # Number of times TLB was flushed by MVA & ASID
system.cpu0.istage2_mmu.stage2_tlb.flush_tlb_asid            0                       # Number of times TLB was flushed by ASID
system.cpu0.istage2_mmu.stage2_tlb.flush_entries            0                       # Number of entries that have been flushed from TLB
system.cpu0.istage2_mmu.stage2_tlb.align_faults            0                       # Number of TLB faults due to alignment restrictions
system.cpu0.istage2_mmu.stage2_tlb.prefetch_faults            0                       # Number of TLB faults due to prefetch
system.cpu0.istage2_mmu.stage2_tlb.domain_faults            0                       # Number of TLB faults due to domain restrictions
system.cpu0.istage2_mmu.stage2_tlb.perms_faults            0                       # Number of TLB faults due to permissions restrictions
system.cpu0.istage2_mmu.stage2_tlb.read_accesses            0                       # DTB read accesses
system.cpu0.istage2_mmu.stage2_tlb.write_accesses            0                       # DTB write accesses
system.cpu0.istage2_mmu.stage2_tlb.inst_accesses            0                       # ITB inst accesses
system.cpu0.istage2_mmu.stage2_tlb.hits             0                       # DTB hits
system.cpu0.istage2_mmu.stage2_tlb.misses            0                       # DTB misses
system.cpu0.istage2_mmu.stage2_tlb.accesses            0                       # DTB accesses
system.cpu0.itb.walker.walks                    70488                       # Table walker walks requested
system.cpu0.itb.walker.walksLong                70488                       # Table walker walks initiated with long descriptors
system.cpu0.itb.walker.walkWaitTime::samples        70488                       # Table walker wait (enqueue to first request) latency
system.cpu0.itb.walker.walkWaitTime::0          70488    100.00%    100.00% # Table walker wait (enqueue to first request) latency
system.cpu0.itb.walker.walkWaitTime::total        70488                       # Table walker wait (enqueue to first request) latency
system.cpu0.itb.walker.walksPending::samples     22844500                       # Table walker pending requests distribution
system.cpu0.itb.walker.walksPending::0       22844500    100.00%    100.00% # Table walker pending requests distribution
system.cpu0.itb.walker.walksPending::total     22844500                       # Table walker pending requests distribution
system.cpu0.itb.walker.walkPageSizes::4K        61740     96.00%     96.00% # Table walker page sizes translated
system.cpu0.itb.walker.walkPageSizes::2M         2570      4.00%    100.00% # Table walker page sizes translated
system.cpu0.itb.walker.walkPageSizes::total        64310                       # Table walker page sizes translated
system.cpu0.itb.walker.walkRequestOrigin_Requested::Data            0                       # Table walker requests started/completed, data/inst
system.cpu0.itb.walker.walkRequestOrigin_Requested::Inst        70488                       # Table walker requests started/completed, data/inst
system.cpu0.itb.walker.walkRequestOrigin_Requested::total        70488                       # Table walker requests started/completed, data/inst
system.cpu0.itb.walker.walkRequestOrigin_Completed::Data            0                       # Table walker requests started/completed, data/inst
system.cpu0.itb.walker.walkRequestOrigin_Completed::Inst        64310                       # Table walker requests started/completed, data/inst
system.cpu0.itb.walker.walkRequestOrigin_Completed::total        64310                       # Table walker requests started/completed, data/inst
system.cpu0.itb.walker.walkRequestOrigin::total       134798                       # Table walker requests started/completed, data/inst
system.cpu0.itb.inst_hits                   493160707                       # ITB inst hits
system.cpu0.itb.inst_misses                     70488                       # ITB inst misses
system.cpu0.itb.read_hits                           0                       # DTB read hits
system.cpu0.itb.read_misses                         0                       # DTB read misses
system.cpu0.itb.write_hits                          0                       # DTB write hits
system.cpu0.itb.write_misses                        0                       # DTB write misses
system.cpu0.itb.flush_tlb                       51122                       # Number of times complete TLB was flushed
system.cpu0.itb.flush_tlb_mva                       0                       # Number of times TLB was flushed by MVA
system.cpu0.itb.flush_tlb_mva_asid              25185                       # Number of times TLB was flushed by MVA & ASID
system.cpu0.itb.flush_tlb_asid                    570                       # Number of times TLB was flushed by ASID
system.cpu0.itb.flush_entries                   40500                       # Number of entries that have been flushed from TLB
system.cpu0.itb.align_faults                        0                       # Number of TLB faults due to alignment restrictions
system.cpu0.itb.prefetch_faults                     0                       # Number of TLB faults due to prefetch
system.cpu0.itb.domain_faults                       0                       # Number of TLB faults due to domain restrictions
system.cpu0.itb.perms_faults                        0                       # Number of TLB faults due to permissions restrictions
system.cpu0.itb.read_accesses                       0                       # DTB read accesses
system.cpu0.itb.write_accesses                      0                       # DTB write accesses
system.cpu0.itb.inst_accesses               493231195                       # ITB inst accesses
system.cpu0.itb.hits                        493160707                       # DTB hits
system.cpu0.itb.misses                          70488                       # DTB misses
system.cpu0.itb.accesses                    493231195                       # DTB accesses
system.cpu0.numCycles                     98036837820                       # number of cpu cycles simulated
system.cpu0.numWorkItemsStarted                     0                       # number of work items this cpu started
system.cpu0.numWorkItemsCompleted                   0                       # number of work items this cpu completed
system.cpu0.kern.inst.arm                           0                       # number of arm instructions executed
system.cpu0.kern.inst.quiesce                   16775                       # number of quiesce instructions executed
system.cpu0.committedInsts                  492942676                       # Number of instructions committed
system.cpu0.committedOps                    578945163                       # Number of ops (including micro ops) committed
system.cpu0.num_int_alu_accesses            530362809                       # Number of integer alu accesses
system.cpu0.num_fp_alu_accesses                453024                       # Number of float alu accesses
system.cpu0.num_func_calls                   28530371                       # number of times a function call or return occured
system.cpu0.num_conditional_control_insts     76157318                       # number of instructions that are conditional controls
system.cpu0.num_int_insts                   530362809                       # number of integer instructions
system.cpu0.num_fp_insts                       453024                       # number of float instructions
system.cpu0.num_int_register_reads          784322084                       # number of times the integer registers were read
system.cpu0.num_int_register_writes         421327896                       # number of times the integer registers were written
system.cpu0.num_fp_register_reads              740492                       # number of times the floating registers were read
system.cpu0.num_fp_register_writes             361708                       # number of times the floating registers were written
system.cpu0.num_cc_register_reads           133053105                       # number of times the CC registers were read
system.cpu0.num_cc_register_writes          132724899                       # number of times the CC registers were written
system.cpu0.num_mem_refs                    176163553                       # number of memory refs
system.cpu0.num_load_insts                   92011132                       # Number of load instructions
system.cpu0.num_store_insts                  84152421                       # Number of store instructions
system.cpu0.num_idle_cycles              96928545322.027405                       # Number of idle cycles
system.cpu0.num_busy_cycles              1108292497.972592                       # Number of busy cycles
system.cpu0.not_idle_fraction                0.011305                       # Percentage of non-idle cycles
system.cpu0.idle_fraction                    0.988695                       # Percentage of idle cycles
system.cpu0.Branches                        110262676                       # Number of branches fetched
system.cpu0.op_class::No_OpClass                    0      0.00%      0.00% # Class of executed instruction
system.cpu0.op_class::IntAlu                401826971     69.37%     69.37% # Class of executed instruction
system.cpu0.op_class::IntMult                 1176436      0.20%     69.57% # Class of executed instruction
system.cpu0.op_class::IntDiv                    51169      0.01%     69.58% # Class of executed instruction
system.cpu0.op_class::FloatAdd                      0      0.00%     69.58% # Class of executed instruction
system.cpu0.op_class::FloatCmp                      0      0.00%     69.58% # Class of executed instruction
system.cpu0.op_class::FloatCvt                      0      0.00%     69.58% # Class of executed instruction
system.cpu0.op_class::FloatMult                     0      0.00%     69.58% # Class of executed instruction
system.cpu0.op_class::FloatDiv                      0      0.00%     69.58% # Class of executed instruction
system.cpu0.op_class::FloatSqrt                     0      0.00%     69.58% # Class of executed instruction
system.cpu0.op_class::SimdAdd                       0      0.00%     69.58% # Class of executed instruction
system.cpu0.op_class::SimdAddAcc                    0      0.00%     69.58% # Class of executed instruction
system.cpu0.op_class::SimdAlu                       0      0.00%     69.58% # Class of executed instruction
system.cpu0.op_class::SimdCmp                       0      0.00%     69.58% # Class of executed instruction
system.cpu0.op_class::SimdCvt                       0      0.00%     69.58% # Class of executed instruction
system.cpu0.op_class::SimdMisc                      0      0.00%     69.58% # Class of executed instruction
system.cpu0.op_class::SimdMult                      0      0.00%     69.58% # Class of executed instruction
system.cpu0.op_class::SimdMultAcc                   0      0.00%     69.58% # Class of executed instruction
system.cpu0.op_class::SimdShift                     0      0.00%     69.58% # Class of executed instruction
system.cpu0.op_class::SimdShiftAcc                  0      0.00%     69.58% # Class of executed instruction
system.cpu0.op_class::SimdSqrt                      0      0.00%     69.58% # Class of executed instruction
system.cpu0.op_class::SimdFloatAdd                  0      0.00%     69.58% # Class of executed instruction
system.cpu0.op_class::SimdFloatAlu                  0      0.00%     69.58% # Class of executed instruction
system.cpu0.op_class::SimdFloatCmp                  0      0.00%     69.58% # Class of executed instruction
system.cpu0.op_class::SimdFloatCvt                  0      0.00%     69.58% # Class of executed instruction
system.cpu0.op_class::SimdFloatDiv                  0      0.00%     69.58% # Class of executed instruction
system.cpu0.op_class::SimdFloatMisc             52500      0.01%     69.59% # Class of executed instruction
system.cpu0.op_class::SimdFloatMult                 0      0.00%     69.59% # Class of executed instruction
system.cpu0.op_class::SimdFloatMultAcc              0      0.00%     69.59% # Class of executed instruction
system.cpu0.op_class::SimdFloatSqrt                 0      0.00%     69.59% # Class of executed instruction
system.cpu0.op_class::MemRead                92011132     15.88%     85.47% # Class of executed instruction
system.cpu0.op_class::MemWrite               84152421     14.53%    100.00% # Class of executed instruction
system.cpu0.op_class::IprAccess                     0      0.00%    100.00% # Class of executed instruction
system.cpu0.op_class::InstPrefetch                  0      0.00%    100.00% # Class of executed instruction
system.cpu0.op_class::total                 579270629                       # Class of executed instruction
system.cpu0.dcache.tags.replacements         11609443                       # number of replacements
system.cpu0.dcache.tags.tagsinuse          511.999719                       # Cycle average of tags in use
system.cpu0.dcache.tags.total_refs          340216355                       # Total number of references to valid blocks.
system.cpu0.dcache.tags.sampled_refs         11609955                       # Sample count of references to valid blocks.
system.cpu0.dcache.tags.avg_refs            29.303848                       # Average number of references to valid blocks.
system.cpu0.dcache.tags.warmup_cycle         33050500                       # Cycle when the warmup percentage was hit.
system.cpu0.dcache.tags.occ_blocks::cpu0.data   262.381327                       # Average occupied blocks per requestor
system.cpu0.dcache.tags.occ_blocks::cpu1.data   249.618393                       # Average occupied blocks per requestor
system.cpu0.dcache.tags.occ_percent::cpu0.data     0.512464                       # Average percentage of cache occupancy
system.cpu0.dcache.tags.occ_percent::cpu1.data     0.487536                       # Average percentage of cache occupancy
system.cpu0.dcache.tags.occ_percent::total     0.999999                       # Average percentage of cache occupancy
system.cpu0.dcache.tags.occ_task_id_blocks::1024          512                       # Occupied blocks per task id
system.cpu0.dcache.tags.age_task_id_blocks_1024::0          196                       # Occupied blocks per task id
system.cpu0.dcache.tags.age_task_id_blocks_1024::1          294                       # Occupied blocks per task id
system.cpu0.dcache.tags.age_task_id_blocks_1024::2           22                       # Occupied blocks per task id
system.cpu0.dcache.tags.occ_task_id_percent::1024            1                       # Percentage of cache occupancy per task id
system.cpu0.dcache.tags.tag_accesses       1418915240                       # Number of tag accesses
system.cpu0.dcache.tags.data_accesses      1418915240                       # Number of data accesses
system.cpu0.dcache.ReadReq_hits::cpu0.data     85703422                       # number of ReadReq hits
system.cpu0.dcache.ReadReq_hits::cpu1.data     85585649                       # number of ReadReq hits
system.cpu0.dcache.ReadReq_hits::total      171289071                       # number of ReadReq hits
system.cpu0.dcache.WriteReq_hits::cpu0.data     79649076                       # number of WriteReq hits
system.cpu0.dcache.WriteReq_hits::cpu1.data     79602210                       # number of WriteReq hits
system.cpu0.dcache.WriteReq_hits::total     159251286                       # number of WriteReq hits
system.cpu0.dcache.SoftPFReq_hits::cpu0.data       209671                       # number of SoftPFReq hits
system.cpu0.dcache.SoftPFReq_hits::cpu1.data       214329                       # number of SoftPFReq hits
system.cpu0.dcache.SoftPFReq_hits::total       424000                       # number of SoftPFReq hits
system.cpu0.dcache.WriteLineReq_hits::cpu0.data       145368                       # number of WriteLineReq hits
system.cpu0.dcache.WriteLineReq_hits::cpu1.data       191474                       # number of WriteLineReq hits
system.cpu0.dcache.WriteLineReq_hits::total       336842                       # number of WriteLineReq hits
system.cpu0.dcache.LoadLockedReq_hits::cpu0.data      2140895                       # number of LoadLockedReq hits
system.cpu0.dcache.LoadLockedReq_hits::cpu1.data      2164816                       # number of LoadLockedReq hits
system.cpu0.dcache.LoadLockedReq_hits::total      4305711                       # number of LoadLockedReq hits
system.cpu0.dcache.StoreCondReq_hits::cpu0.data      2265304                       # number of StoreCondReq hits
system.cpu0.dcache.StoreCondReq_hits::cpu1.data      2292996                       # number of StoreCondReq hits
system.cpu0.dcache.StoreCondReq_hits::total      4558300                       # number of StoreCondReq hits
system.cpu0.dcache.demand_hits::cpu0.data    165497866                       # number of demand (read+write) hits
system.cpu0.dcache.demand_hits::cpu1.data    165379333                       # number of demand (read+write) hits
system.cpu0.dcache.demand_hits::total       330877199                       # number of demand (read+write) hits
system.cpu0.dcache.overall_hits::cpu0.data    165707537                       # number of overall hits
system.cpu0.dcache.overall_hits::cpu1.data    165593662                       # number of overall hits
system.cpu0.dcache.overall_hits::total      331301199                       # number of overall hits
system.cpu0.dcache.ReadReq_misses::cpu0.data      3022640                       # number of ReadReq misses
system.cpu0.dcache.ReadReq_misses::cpu1.data      2983261                       # number of ReadReq misses
system.cpu0.dcache.ReadReq_misses::total      6005901                       # number of ReadReq misses
system.cpu0.dcache.WriteReq_misses::cpu0.data      1299985                       # number of WriteReq misses
system.cpu0.dcache.WriteReq_misses::cpu1.data      1269181                       # number of WriteReq misses
system.cpu0.dcache.WriteReq_misses::total      2569166                       # number of WriteReq misses
system.cpu0.dcache.SoftPFReq_misses::cpu0.data       790936                       # number of SoftPFReq misses
system.cpu0.dcache.SoftPFReq_misses::cpu1.data       794497                       # number of SoftPFReq misses
system.cpu0.dcache.SoftPFReq_misses::total      1585433                       # number of SoftPFReq misses
system.cpu0.dcache.WriteLineReq_misses::cpu0.data       765655                       # number of WriteLineReq misses
system.cpu0.dcache.WriteLineReq_misses::cpu1.data       480562                       # number of WriteLineReq misses
system.cpu0.dcache.WriteLineReq_misses::total      1246217                       # number of WriteLineReq misses
system.cpu0.dcache.LoadLockedReq_misses::cpu0.data       125328                       # number of LoadLockedReq misses
system.cpu0.dcache.LoadLockedReq_misses::cpu1.data       129063                       # number of LoadLockedReq misses
system.cpu0.dcache.LoadLockedReq_misses::total       254391                       # number of LoadLockedReq misses
system.cpu0.dcache.StoreCondReq_misses::cpu1.data            1                       # number of StoreCondReq misses
system.cpu0.dcache.StoreCondReq_misses::total            1                       # number of StoreCondReq misses
system.cpu0.dcache.demand_misses::cpu0.data      5088280                       # number of demand (read+write) misses
system.cpu0.dcache.demand_misses::cpu1.data      4733004                       # number of demand (read+write) misses
system.cpu0.dcache.demand_misses::total       9821284                       # number of demand (read+write) misses
system.cpu0.dcache.overall_misses::cpu0.data      5879216                       # number of overall misses
system.cpu0.dcache.overall_misses::cpu1.data      5527501                       # number of overall misses
system.cpu0.dcache.overall_misses::total     11406717                       # number of overall misses
system.cpu0.dcache.ReadReq_accesses::cpu0.data     88726062                       # number of ReadReq accesses(hits+misses)
system.cpu0.dcache.ReadReq_accesses::cpu1.data     88568910                       # number of ReadReq accesses(hits+misses)
system.cpu0.dcache.ReadReq_accesses::total    177294972                       # number of ReadReq accesses(hits+misses)
system.cpu0.dcache.WriteReq_accesses::cpu0.data     80949061                       # number of WriteReq accesses(hits+misses)
system.cpu0.dcache.WriteReq_accesses::cpu1.data     80871391                       # number of WriteReq accesses(hits+misses)
system.cpu0.dcache.WriteReq_accesses::total    161820452                       # number of WriteReq accesses(hits+misses)
system.cpu0.dcache.SoftPFReq_accesses::cpu0.data      1000607                       # number of SoftPFReq accesses(hits+misses)
system.cpu0.dcache.SoftPFReq_accesses::cpu1.data      1008826                       # number of SoftPFReq accesses(hits+misses)
system.cpu0.dcache.SoftPFReq_accesses::total      2009433                       # number of SoftPFReq accesses(hits+misses)
system.cpu0.dcache.WriteLineReq_accesses::cpu0.data       911023                       # number of WriteLineReq accesses(hits+misses)
system.cpu0.dcache.WriteLineReq_accesses::cpu1.data       672036                       # number of WriteLineReq accesses(hits+misses)
system.cpu0.dcache.WriteLineReq_accesses::total      1583059                       # number of WriteLineReq accesses(hits+misses)
system.cpu0.dcache.LoadLockedReq_accesses::cpu0.data      2266223                       # number of LoadLockedReq accesses(hits+misses)
system.cpu0.dcache.LoadLockedReq_accesses::cpu1.data      2293879                       # number of LoadLockedReq accesses(hits+misses)
system.cpu0.dcache.LoadLockedReq_accesses::total      4560102                       # number of LoadLockedReq accesses(hits+misses)
system.cpu0.dcache.StoreCondReq_accesses::cpu0.data      2265304                       # number of StoreCondReq accesses(hits+misses)
system.cpu0.dcache.StoreCondReq_accesses::cpu1.data      2292997                       # number of StoreCondReq accesses(hits+misses)
system.cpu0.dcache.StoreCondReq_accesses::total      4558301                       # number of StoreCondReq accesses(hits+misses)
system.cpu0.dcache.demand_accesses::cpu0.data    170586146                       # number of demand (read+write) accesses
system.cpu0.dcache.demand_accesses::cpu1.data    170112337                       # number of demand (read+write) accesses
system.cpu0.dcache.demand_accesses::total    340698483                       # number of demand (read+write) accesses
system.cpu0.dcache.overall_accesses::cpu0.data    171586753                       # number of overall (read+write) accesses
system.cpu0.dcache.overall_accesses::cpu1.data    171121163                       # number of overall (read+write) accesses
system.cpu0.dcache.overall_accesses::total    342707916                       # number of overall (read+write) accesses
system.cpu0.dcache.ReadReq_miss_rate::cpu0.data     0.034067                       # miss rate for ReadReq accesses
system.cpu0.dcache.ReadReq_miss_rate::cpu1.data     0.033683                       # miss rate for ReadReq accesses
system.cpu0.dcache.ReadReq_miss_rate::total     0.033875                       # miss rate for ReadReq accesses
system.cpu0.dcache.WriteReq_miss_rate::cpu0.data     0.016059                       # miss rate for WriteReq accesses
system.cpu0.dcache.WriteReq_miss_rate::cpu1.data     0.015694                       # miss rate for WriteReq accesses
system.cpu0.dcache.WriteReq_miss_rate::total     0.015877                       # miss rate for WriteReq accesses
system.cpu0.dcache.SoftPFReq_miss_rate::cpu0.data     0.790456                       # miss rate for SoftPFReq accesses
system.cpu0.dcache.SoftPFReq_miss_rate::cpu1.data     0.787546                       # miss rate for SoftPFReq accesses
system.cpu0.dcache.SoftPFReq_miss_rate::total     0.788995                       # miss rate for SoftPFReq accesses
system.cpu0.dcache.WriteLineReq_miss_rate::cpu0.data     0.840434                       # miss rate for WriteLineReq accesses
system.cpu0.dcache.WriteLineReq_miss_rate::cpu1.data     0.715084                       # miss rate for WriteLineReq accesses
system.cpu0.dcache.WriteLineReq_miss_rate::total     0.787221                       # miss rate for WriteLineReq accesses
system.cpu0.dcache.LoadLockedReq_miss_rate::cpu0.data     0.055303                       # miss rate for LoadLockedReq accesses
system.cpu0.dcache.LoadLockedReq_miss_rate::cpu1.data     0.056264                       # miss rate for LoadLockedReq accesses
system.cpu0.dcache.LoadLockedReq_miss_rate::total     0.055786                       # miss rate for LoadLockedReq accesses
system.cpu0.dcache.StoreCondReq_miss_rate::cpu1.data     0.000000                       # miss rate for StoreCondReq accesses
system.cpu0.dcache.StoreCondReq_miss_rate::total     0.000000                       # miss rate for StoreCondReq accesses
system.cpu0.dcache.demand_miss_rate::cpu0.data     0.029828                       # miss rate for demand accesses
system.cpu0.dcache.demand_miss_rate::cpu1.data     0.027823                       # miss rate for demand accesses
system.cpu0.dcache.demand_miss_rate::total     0.028827                       # miss rate for demand accesses
system.cpu0.dcache.overall_miss_rate::cpu0.data     0.034264                       # miss rate for overall accesses
system.cpu0.dcache.overall_miss_rate::cpu1.data     0.032302                       # miss rate for overall accesses
system.cpu0.dcache.overall_miss_rate::total     0.033284                       # miss rate for overall accesses
system.cpu0.dcache.blocked_cycles::no_mshrs            0                       # number of cycles access was blocked
system.cpu0.dcache.blocked_cycles::no_targets            0                       # number of cycles access was blocked
system.cpu0.dcache.blocked::no_mshrs                0                       # number of cycles access was blocked
system.cpu0.dcache.blocked::no_targets              0                       # number of cycles access was blocked
system.cpu0.dcache.avg_blocked_cycles::no_mshrs          nan                       # average number of cycles each access was blocked
system.cpu0.dcache.avg_blocked_cycles::no_targets          nan                       # average number of cycles each access was blocked
system.cpu0.dcache.writebacks::writebacks      8920157                       # number of writebacks
system.cpu0.dcache.writebacks::total          8920157                       # number of writebacks
system.cpu0.icache.tags.replacements         14275419                       # number of replacements
system.cpu0.icache.tags.tagsinuse          511.984599                       # Cycle average of tags in use
system.cpu0.icache.tags.total_refs          969443892                       # Total number of references to valid blocks.
system.cpu0.icache.tags.sampled_refs         14275931                       # Sample count of references to valid blocks.
system.cpu0.icache.tags.avg_refs            67.907578                       # Average number of references to valid blocks.
system.cpu0.icache.tags.warmup_cycle       6061930000                       # Cycle when the warmup percentage was hit.
system.cpu0.icache.tags.occ_blocks::cpu0.inst   268.598488                       # Average occupied blocks per requestor
system.cpu0.icache.tags.occ_blocks::cpu1.inst   243.386111                       # Average occupied blocks per requestor
system.cpu0.icache.tags.occ_percent::cpu0.inst     0.524606                       # Average percentage of cache occupancy
system.cpu0.icache.tags.occ_percent::cpu1.inst     0.475363                       # Average percentage of cache occupancy
system.cpu0.icache.tags.occ_percent::total     0.999970                       # Average percentage of cache occupancy
system.cpu0.icache.tags.occ_task_id_blocks::1024          512                       # Occupied blocks per task id
system.cpu0.icache.tags.age_task_id_blocks_1024::0          161                       # Occupied blocks per task id
system.cpu0.icache.tags.age_task_id_blocks_1024::1          261                       # Occupied blocks per task id
system.cpu0.icache.tags.age_task_id_blocks_1024::2           90                       # Occupied blocks per task id
system.cpu0.icache.tags.occ_task_id_percent::1024            1                       # Percentage of cache occupancy per task id
system.cpu0.icache.tags.tag_accesses        997995764                       # Number of tag accesses
system.cpu0.icache.tags.data_accesses       997995764                       # Number of data accesses
system.cpu0.icache.ReadReq_hits::cpu0.inst    486058611                       # number of ReadReq hits
system.cpu0.icache.ReadReq_hits::cpu1.inst    483385281                       # number of ReadReq hits
system.cpu0.icache.ReadReq_hits::total      969443892                       # number of ReadReq hits
system.cpu0.icache.demand_hits::cpu0.inst    486058611                       # number of demand (read+write) hits
system.cpu0.icache.demand_hits::cpu1.inst    483385281                       # number of demand (read+write) hits
system.cpu0.icache.demand_hits::total       969443892                       # number of demand (read+write) hits
system.cpu0.icache.overall_hits::cpu0.inst    486058611                       # number of overall hits
system.cpu0.icache.overall_hits::cpu1.inst    483385281                       # number of overall hits
system.cpu0.icache.overall_hits::total      969443892                       # number of overall hits
system.cpu0.icache.ReadReq_misses::cpu0.inst      7166406                       # number of ReadReq misses
system.cpu0.icache.ReadReq_misses::cpu1.inst      7109530                       # number of ReadReq misses
system.cpu0.icache.ReadReq_misses::total     14275936                       # number of ReadReq misses
system.cpu0.icache.demand_misses::cpu0.inst      7166406                       # number of demand (read+write) misses
system.cpu0.icache.demand_misses::cpu1.inst      7109530                       # number of demand (read+write) misses
system.cpu0.icache.demand_misses::total      14275936                       # number of demand (read+write) misses
system.cpu0.icache.overall_misses::cpu0.inst      7166406                       # number of overall misses
system.cpu0.icache.overall_misses::cpu1.inst      7109530                       # number of overall misses
system.cpu0.icache.overall_misses::total     14275936                       # number of overall misses
system.cpu0.icache.ReadReq_accesses::cpu0.inst    493225017                       # number of ReadReq accesses(hits+misses)
system.cpu0.icache.ReadReq_accesses::cpu1.inst    490494811                       # number of ReadReq accesses(hits+misses)
system.cpu0.icache.ReadReq_accesses::total    983719828                       # number of ReadReq accesses(hits+misses)
system.cpu0.icache.demand_accesses::cpu0.inst    493225017                       # number of demand (read+write) accesses
system.cpu0.icache.demand_accesses::cpu1.inst    490494811                       # number of demand (read+write) accesses
system.cpu0.icache.demand_accesses::total    983719828                       # number of demand (read+write) accesses
system.cpu0.icache.overall_accesses::cpu0.inst    493225017                       # number of overall (read+write) accesses
system.cpu0.icache.overall_accesses::cpu1.inst    490494811                       # number of overall (read+write) accesses
system.cpu0.icache.overall_accesses::total    983719828                       # number of overall (read+write) accesses
system.cpu0.icache.ReadReq_miss_rate::cpu0.inst     0.014530                       # miss rate for ReadReq accesses
system.cpu0.icache.ReadReq_miss_rate::cpu1.inst     0.014495                       # miss rate for ReadReq accesses
system.cpu0.icache.ReadReq_miss_rate::total     0.014512                       # miss rate for ReadReq accesses
system.cpu0.icache.demand_miss_rate::cpu0.inst     0.014530                       # miss rate for demand accesses
system.cpu0.icache.demand_miss_rate::cpu1.inst     0.014495                       # miss rate for demand accesses
system.cpu0.icache.demand_miss_rate::total     0.014512                       # miss rate for demand accesses
system.cpu0.icache.overall_miss_rate::cpu0.inst     0.014530                       # miss rate for overall accesses
system.cpu0.icache.overall_miss_rate::cpu1.inst     0.014495                       # miss rate for overall accesses
system.cpu0.icache.overall_miss_rate::total     0.014512                       # miss rate for overall accesses
system.cpu0.icache.blocked_cycles::no_mshrs            0                       # number of cycles access was blocked
system.cpu0.icache.blocked_cycles::no_targets            0                       # number of cycles access was blocked
system.cpu0.icache.blocked::no_mshrs                0                       # number of cycles access was blocked
system.cpu0.icache.blocked::no_targets              0                       # number of cycles access was blocked
system.cpu0.icache.avg_blocked_cycles::no_mshrs          nan                       # average number of cycles each access was blocked
system.cpu0.icache.avg_blocked_cycles::no_targets          nan                       # average number of cycles each access was blocked
system.cpu0.icache.writebacks::writebacks     14275419                       # number of writebacks
system.cpu0.icache.writebacks::total         14275419                       # number of writebacks
system.cpu1.dstage2_mmu.stage2_tlb.walker.walks            0                       # Table walker walks requested
system.cpu1.dstage2_mmu.stage2_tlb.walker.walkRequestOrigin_Requested::Data            0                       # Table walker requests started/completed, data/inst
system.cpu1.dstage2_mmu.stage2_tlb.walker.walkRequestOrigin_Requested::Inst            0                       # Table walker requests started/completed, data/inst
system.cpu1.dstage2_mmu.stage2_tlb.walker.walkRequestOrigin_Requested::total            0                       # Table walker requests started/completed, data/inst
system.cpu1.dstage2_mmu.stage2_tlb.walker.walkRequestOrigin_Completed::Data            0                       # Table walker requests started/completed, data/inst
system.cpu1.dstage2_mmu.stage2_tlb.walker.walkRequestOrigin_Completed::Inst            0                       # Table walker requests started/completed, data/inst
system.cpu1.dstage2_mmu.stage2_tlb.walker.walkRequestOrigin_Completed::total            0                       # Table walker requests started/completed, data/inst
system.cpu1.dstage2_mmu.stage2_tlb.walker.walkRequestOrigin::total            0                       # Table walker requests started/completed, data/inst
system.cpu1.dstage2_mmu.stage2_tlb.inst_hits            0                       # ITB inst hits
system.cpu1.dstage2_mmu.stage2_tlb.inst_misses            0                       # ITB inst misses
system.cpu1.dstage2_mmu.stage2_tlb.read_hits            0                       # DTB read hits
system.cpu1.dstage2_mmu.stage2_tlb.read_misses            0                       # DTB read misses
system.cpu1.dstage2_mmu.stage2_tlb.write_hits            0                       # DTB write hits
system.cpu1.dstage2_mmu.stage2_tlb.write_misses            0                       # DTB write misses
system.cpu1.dstage2_mmu.stage2_tlb.flush_tlb            0                       # Number of times complete TLB was flushed
system.cpu1.dstage2_mmu.stage2_tlb.flush_tlb_mva            0                       # Number of times TLB was flushed by MVA
system.cpu1.dstage2_mmu.stage2_tlb.flush_tlb_mva_asid            0                       # Number of times TLB was flushed by MVA & ASID
system.cpu1.dstage2_mmu.stage2_tlb.flush_tlb_asid            0                       # Number of times TLB was flushed by ASID
system.cpu1.dstage2_mmu.stage2_tlb.flush_entries            0                       # Number of entries that have been flushed from TLB
system.cpu1.dstage2_mmu.stage2_tlb.align_faults            0                       # Number of TLB faults due to alignment restrictions
system.cpu1.dstage2_mmu.stage2_tlb.prefetch_faults            0                       # Number of TLB faults due to prefetch
system.cpu1.dstage2_mmu.stage2_tlb.domain_faults            0                       # Number of TLB faults due to domain restrictions
system.cpu1.dstage2_mmu.stage2_tlb.perms_faults            0                       # Number of TLB faults due to permissions restrictions
system.cpu1.dstage2_mmu.stage2_tlb.read_accesses            0                       # DTB read accesses
system.cpu1.dstage2_mmu.stage2_tlb.write_accesses            0                       # DTB write accesses
system.cpu1.dstage2_mmu.stage2_tlb.inst_accesses            0                       # ITB inst accesses
system.cpu1.dstage2_mmu.stage2_tlb.hits             0                       # DTB hits
system.cpu1.dstage2_mmu.stage2_tlb.misses            0                       # DTB misses
system.cpu1.dstage2_mmu.stage2_tlb.accesses            0                       # DTB accesses
system.cpu1.dtb.walker.walks                   143940                       # Table walker walks requested
system.cpu1.dtb.walker.walksLong               143940                       # Table walker walks initiated with long descriptors
system.cpu1.dtb.walker.walkWaitTime::samples       143940                       # Table walker wait (enqueue to first request) latency
system.cpu1.dtb.walker.walkWaitTime::0         143940    100.00%    100.00% # Table walker wait (enqueue to first request) latency
system.cpu1.dtb.walker.walkWaitTime::total       143940                       # Table walker wait (enqueue to first request) latency
system.cpu1.dtb.walker.walksPending::samples   1000001000                       # Table walker pending requests distribution
system.cpu1.dtb.walker.walksPending::0     1000001000    100.00%    100.00% # Table walker pending requests distribution
system.cpu1.dtb.walker.walksPending::total   1000001000                       # Table walker pending requests distribution
system.cpu1.dtb.walker.walkPageSizes::4K       107031     85.37%     85.37% # Table walker page sizes translated
system.cpu1.dtb.walker.walkPageSizes::2M        18349     14.63%    100.00% # Table walker page sizes translated
system.cpu1.dtb.walker.walkPageSizes::total       125380                       # Table walker page sizes translated
system.cpu1.dtb.walker.walkRequestOrigin_Requested::Data       143940                       # Table walker requests started/completed, data/inst
system.cpu1.dtb.walker.walkRequestOrigin_Requested::Inst            0                       # Table walker requests started/completed, data/inst
system.cpu1.dtb.walker.walkRequestOrigin_Requested::total       143940                       # Table walker requests started/completed, data/inst
system.cpu1.dtb.walker.walkRequestOrigin_Completed::Data       125380                       # Table walker requests started/completed, data/inst
system.cpu1.dtb.walker.walkRequestOrigin_Completed::Inst            0                       # Table walker requests started/completed, data/inst
system.cpu1.dtb.walker.walkRequestOrigin_Completed::total       125380                       # Table walker requests started/completed, data/inst
system.cpu1.dtb.walker.walkRequestOrigin::total       269320                       # Table walker requests started/completed, data/inst
system.cpu1.dtb.inst_hits                           0                       # ITB inst hits
system.cpu1.dtb.inst_misses                         0                       # ITB inst misses
system.cpu1.dtb.read_hits                    91791346                       # DTB read hits
system.cpu1.dtb.read_misses                    106897                       # DTB read misses
system.cpu1.dtb.write_hits                   83829592                       # DTB write hits
system.cpu1.dtb.write_misses                    37043                       # DTB write misses
system.cpu1.dtb.flush_tlb                       51111                       # Number of times complete TLB was flushed
system.cpu1.dtb.flush_tlb_mva                       0                       # Number of times TLB was flushed by MVA
system.cpu1.dtb.flush_tlb_mva_asid              24586                       # Number of times TLB was flushed by MVA & ASID
system.cpu1.dtb.flush_tlb_asid                    569                       # Number of times TLB was flushed by ASID
system.cpu1.dtb.flush_entries                   56691                       # Number of entries that have been flushed from TLB
system.cpu1.dtb.align_faults                        0                       # Number of TLB faults due to alignment restrictions
system.cpu1.dtb.prefetch_faults                  4731                       # Number of TLB faults due to prefetch
system.cpu1.dtb.domain_faults                       0                       # Number of TLB faults due to domain restrictions
system.cpu1.dtb.perms_faults                    10699                       # Number of TLB faults due to permissions restrictions
system.cpu1.dtb.read_accesses                91898243                       # DTB read accesses
system.cpu1.dtb.write_accesses               83866635                       # DTB write accesses
system.cpu1.dtb.inst_accesses                       0                       # ITB inst accesses
system.cpu1.dtb.hits                        175620938                       # DTB hits
system.cpu1.dtb.misses                         143940                       # DTB misses
system.cpu1.dtb.accesses                    175764878                       # DTB accesses
system.cpu1.istage2_mmu.stage2_tlb.walker.walks            0                       # Table walker walks requested
system.cpu1.istage2_mmu.stage2_tlb.walker.walkRequestOrigin_Requested::Data            0                       # Table walker requests started/completed, data/inst
system.cpu1.istage2_mmu.stage2_tlb.walker.walkRequestOrigin_Requested::Inst            0                       # Table walker requests started/completed, data/inst
system.cpu1.istage2_mmu.stage2_tlb.walker.walkRequestOrigin_Requested::total            0                       # Table walker requests started/completed, data/inst
system.cpu1.istage2_mmu.stage2_tlb.walker.walkRequestOrigin_Completed::Data            0                       # Table walker requests started/completed, data/inst
system.cpu1.istage2_mmu.stage2_tlb.walker.walkRequestOrigin_Completed::Inst            0                       # Table walker requests started/completed, data/inst
system.cpu1.istage2_mmu.stage2_tlb.walker.walkRequestOrigin_Completed::total            0                       # Table walker requests started/completed, data/inst
system.cpu1.istage2_mmu.stage2_tlb.walker.walkRequestOrigin::total            0                       # Table walker requests started/completed, data/inst
system.cpu1.istage2_mmu.stage2_tlb.inst_hits            0                       # ITB inst hits
system.cpu1.istage2_mmu.stage2_tlb.inst_misses            0                       # ITB inst misses
system.cpu1.istage2_mmu.stage2_tlb.read_hits            0                       # DTB read hits
system.cpu1.istage2_mmu.stage2_tlb.read_misses            0                       # DTB read misses
system.cpu1.istage2_mmu.stage2_tlb.write_hits            0                       # DTB write hits
system.cpu1.istage2_mmu.stage2_tlb.write_misses            0                       # DTB write misses
system.cpu1.istage2_mmu.stage2_tlb.flush_tlb            0                       # Number of times complete TLB was flushed
system.cpu1.istage2_mmu.stage2_tlb.flush_tlb_mva            0                       # Number of times TLB was flushed by MVA
system.cpu1.istage2_mmu.stage2_tlb.flush_tlb_mva_asid            0                       # Number of times TLB was flushed by MVA & ASID
system.cpu1.istage2_mmu.stage2_tlb.flush_tlb_asid            0                       # Number of times TLB was flushed by ASID
system.cpu1.istage2_mmu.stage2_tlb.flush_entries            0                       # Number of entries that have been flushed from TLB
system.cpu1.istage2_mmu.stage2_tlb.align_faults            0                       # Number of TLB faults due to alignment restrictions
system.cpu1.istage2_mmu.stage2_tlb.prefetch_faults            0                       # Number of TLB faults due to prefetch
system.cpu1.istage2_mmu.stage2_tlb.domain_faults            0                       # Number of TLB faults due to domain restrictions
system.cpu1.istage2_mmu.stage2_tlb.perms_faults            0                       # Number of TLB faults due to permissions restrictions
system.cpu1.istage2_mmu.stage2_tlb.read_accesses            0                       # DTB read accesses
system.cpu1.istage2_mmu.stage2_tlb.write_accesses            0                       # DTB write accesses
system.cpu1.istage2_mmu.stage2_tlb.inst_accesses            0                       # ITB inst accesses
system.cpu1.istage2_mmu.stage2_tlb.hits             0                       # DTB hits
system.cpu1.istage2_mmu.stage2_tlb.misses            0                       # DTB misses
system.cpu1.istage2_mmu.stage2_tlb.accesses            0                       # DTB accesses
system.cpu1.itb.walker.walks                    69853                       # Table walker walks requested
system.cpu1.itb.walker.walksLong                69853                       # Table walker walks initiated with long descriptors
system.cpu1.itb.walker.walkWaitTime::samples        69853                       # Table walker wait (enqueue to first request) latency
system.cpu1.itb.walker.walkWaitTime::0          69853    100.00%    100.00% # Table walker wait (enqueue to first request) latency
system.cpu1.itb.walker.walkWaitTime::total        69853                       # Table walker wait (enqueue to first request) latency
system.cpu1.itb.walker.walksPending::samples   1000000500                       # Table walker pending requests distribution
system.cpu1.itb.walker.walksPending::0     1000000500    100.00%    100.00% # Table walker pending requests distribution
system.cpu1.itb.walker.walksPending::total   1000000500                       # Table walker pending requests distribution
system.cpu1.itb.walker.walkPageSizes::4K        61351     96.02%     96.02% # Table walker page sizes translated
system.cpu1.itb.walker.walkPageSizes::2M         2542      3.98%    100.00% # Table walker page sizes translated
system.cpu1.itb.walker.walkPageSizes::total        63893                       # Table walker page sizes translated
system.cpu1.itb.walker.walkRequestOrigin_Requested::Data            0                       # Table walker requests started/completed, data/inst
system.cpu1.itb.walker.walkRequestOrigin_Requested::Inst        69853                       # Table walker requests started/completed, data/inst
system.cpu1.itb.walker.walkRequestOrigin_Requested::total        69853                       # Table walker requests started/completed, data/inst
system.cpu1.itb.walker.walkRequestOrigin_Completed::Data            0                       # Table walker requests started/completed, data/inst
system.cpu1.itb.walker.walkRequestOrigin_Completed::Inst        63893                       # Table walker requests started/completed, data/inst
system.cpu1.itb.walker.walkRequestOrigin_Completed::total        63893                       # Table walker requests started/completed, data/inst
system.cpu1.itb.walker.walkRequestOrigin::total       133746                       # Table walker requests started/completed, data/inst
system.cpu1.itb.inst_hits                   490430918                       # ITB inst hits
system.cpu1.itb.inst_misses                     69853                       # ITB inst misses
system.cpu1.itb.read_hits                           0                       # DTB read hits
system.cpu1.itb.read_misses                         0                       # DTB read misses
system.cpu1.itb.write_hits                          0                       # DTB write hits
system.cpu1.itb.write_misses                        0                       # DTB write misses
system.cpu1.itb.flush_tlb                       51111                       # Number of times complete TLB was flushed
system.cpu1.itb.flush_tlb_mva                       0                       # Number of times TLB was flushed by MVA
system.cpu1.itb.flush_tlb_mva_asid              24586                       # Number of times TLB was flushed by MVA & ASID
system.cpu1.itb.flush_tlb_asid                    569                       # Number of times TLB was flushed by ASID
system.cpu1.itb.flush_entries                   41078                       # Number of entries that have been flushed from TLB
system.cpu1.itb.align_faults                        0                       # Number of TLB faults due to alignment restrictions
system.cpu1.itb.prefetch_faults                     0                       # Number of TLB faults due to prefetch
system.cpu1.itb.domain_faults                       0                       # Number of TLB faults due to domain restrictions
system.cpu1.itb.perms_faults                        0                       # Number of TLB faults due to permissions restrictions
system.cpu1.itb.read_accesses                       0                       # DTB read accesses
system.cpu1.itb.write_accesses                      0                       # DTB write accesses
system.cpu1.itb.inst_accesses               490500771                       # ITB inst accesses
system.cpu1.itb.hits                        490430918                       # DTB hits
system.cpu1.itb.misses                          69853                       # DTB misses
system.cpu1.itb.accesses                    490500771                       # DTB accesses
system.cpu1.numCycles                     97462088232                       # number of cpu cycles simulated
system.cpu1.numWorkItemsStarted                     0                       # number of work items this cpu started
system.cpu1.numWorkItemsCompleted                   0                       # number of work items this cpu completed
system.cpu1.kern.inst.arm                           0                       # number of arm instructions executed
system.cpu1.kern.inst.quiesce                       0                       # number of quiesce instructions executed
system.cpu1.committedInsts                  490185614                       # Number of instructions committed
system.cpu1.committedOps                    576425305                       # Number of ops (including micro ops) committed
system.cpu1.num_int_alu_accesses            528528005                       # Number of integer alu accesses
system.cpu1.num_fp_alu_accesses                428357                       # Number of float alu accesses
system.cpu1.num_func_calls                   28391089                       # number of times a function call or return occured
system.cpu1.num_conditional_control_insts     75589435                       # number of instructions that are conditional controls
system.cpu1.num_int_insts                   528528005                       # number of integer instructions
system.cpu1.num_fp_insts                       428357                       # number of float instructions
system.cpu1.num_int_register_reads          777707533                       # number of times the integer registers were read
system.cpu1.num_int_register_writes         419943205                       # number of times the integer registers were written
system.cpu1.num_fp_register_reads              679275                       # number of times the floating registers were read
system.cpu1.num_fp_register_writes             386980                       # number of times the floating registers were written
system.cpu1.num_cc_register_reads           131115369                       # number of times the CC registers were read
system.cpu1.num_cc_register_writes          130866277                       # number of times the CC registers were written
system.cpu1.num_mem_refs                    175739961                       # number of memory refs
system.cpu1.num_load_insts                   91884045                       # Number of load instructions
system.cpu1.num_store_insts                  83855916                       # Number of store instructions
system.cpu1.num_idle_cycles              96357307601.045395                       # Number of idle cycles
system.cpu1.num_busy_cycles              1104780630.954602                       # Number of busy cycles
system.cpu1.not_idle_fraction                0.011335                       # Percentage of non-idle cycles
system.cpu1.idle_fraction                    0.988665                       # Percentage of idle cycles
system.cpu1.Branches                        109487364                       # Number of branches fetched
system.cpu1.op_class::No_OpClass                    1      0.00%      0.00% # Class of executed instruction
system.cpu1.op_class::IntAlu                399711275     69.31%     69.31% # Class of executed instruction
system.cpu1.op_class::IntMult                 1178043      0.20%     69.51% # Class of executed instruction
system.cpu1.op_class::IntDiv                    49858      0.01%     69.52% # Class of executed instruction
system.cpu1.op_class::FloatAdd                      0      0.00%     69.52% # Class of executed instruction
system.cpu1.op_class::FloatCmp                      0      0.00%     69.52% # Class of executed instruction
system.cpu1.op_class::FloatCvt                      0      0.00%     69.52% # Class of executed instruction
system.cpu1.op_class::FloatMult                     0      0.00%     69.52% # Class of executed instruction
system.cpu1.op_class::FloatDiv                      0      0.00%     69.52% # Class of executed instruction
system.cpu1.op_class::FloatSqrt                     0      0.00%     69.52% # Class of executed instruction
system.cpu1.op_class::SimdAdd                       0      0.00%     69.52% # Class of executed instruction
system.cpu1.op_class::SimdAddAcc                    0      0.00%     69.52% # Class of executed instruction
system.cpu1.op_class::SimdAlu                       0      0.00%     69.52% # Class of executed instruction
system.cpu1.op_class::SimdCmp                       0      0.00%     69.52% # Class of executed instruction
system.cpu1.op_class::SimdCvt                       0      0.00%     69.52% # Class of executed instruction
system.cpu1.op_class::SimdMisc                      0      0.00%     69.52% # Class of executed instruction
system.cpu1.op_class::SimdMult                      0      0.00%     69.52% # Class of executed instruction
system.cpu1.op_class::SimdMultAcc                   0      0.00%     69.52% # Class of executed instruction
system.cpu1.op_class::SimdShift                     0      0.00%     69.52% # Class of executed instruction
system.cpu1.op_class::SimdShiftAcc                  0      0.00%     69.52% # Class of executed instruction
system.cpu1.op_class::SimdSqrt                      0      0.00%     69.52% # Class of executed instruction
system.cpu1.op_class::SimdFloatAdd                  8      0.00%     69.52% # Class of executed instruction
system.cpu1.op_class::SimdFloatAlu                  0      0.00%     69.52% # Class of executed instruction
system.cpu1.op_class::SimdFloatCmp                 13      0.00%     69.52% # Class of executed instruction
system.cpu1.op_class::SimdFloatCvt                 21      0.00%     69.52% # Class of executed instruction
system.cpu1.op_class::SimdFloatDiv                  0      0.00%     69.52% # Class of executed instruction
system.cpu1.op_class::SimdFloatMisc             55322      0.01%     69.53% # Class of executed instruction
system.cpu1.op_class::SimdFloatMult                 0      0.00%     69.53% # Class of executed instruction
system.cpu1.op_class::SimdFloatMultAcc              0      0.00%     69.53% # Class of executed instruction
system.cpu1.op_class::SimdFloatSqrt                 0      0.00%     69.53% # Class of executed instruction
system.cpu1.op_class::MemRead                91884045     15.93%     85.46% # Class of executed instruction
system.cpu1.op_class::MemWrite               83855916     14.54%    100.00% # Class of executed instruction
system.cpu1.op_class::IprAccess                     0      0.00%    100.00% # Class of executed instruction
system.cpu1.op_class::InstPrefetch                  0      0.00%    100.00% # Class of executed instruction
system.cpu1.op_class::total                 576734502                       # Class of executed instruction
system.iobus.trans_dist::ReadReq                40249                       # Transaction distribution
system.iobus.trans_dist::ReadResp               40249                       # Transaction distribution
system.iobus.trans_dist::WriteReq              136515                       # Transaction distribution
system.iobus.trans_dist::WriteResp             136515                       # Transaction distribution
system.iobus.pkt_count_system.bridge.master::system.realview.uart.pio        47598                       # Packet count per connected master and slave (bytes)
system.iobus.pkt_count_system.bridge.master::system.realview.realview_io.pio           14                       # Packet count per connected master and slave (bytes)
system.iobus.pkt_count_system.bridge.master::system.realview.pci_host.pio          434                       # Packet count per connected master and slave (bytes)
[...]
system.l2c.demand_miss_rate::cpu1.dtb.walker     0.011478                       # miss rate for demand accesses
system.l2c.demand_miss_rate::cpu1.itb.walker     0.019901                       # miss rate for demand accesses
system.l2c.demand_miss_rate::cpu1.inst       0.004809                       # miss rate for demand accesses
system.l2c.demand_miss_rate::cpu1.data       0.111904                       # miss rate for demand accesses
system.l2c.demand_miss_rate::total           0.049665                       # miss rate for demand accesses
system.l2c.overall_miss_rate::cpu0.dtb.walker     0.011325                       # miss rate for overall accesses
system.l2c.overall_miss_rate::cpu0.itb.walker     0.019641                       # miss rate for overall accesses
system.l2c.overall_miss_rate::cpu0.inst      0.006815                       # miss rate for overall accesses
system.l2c.overall_miss_rate::cpu0.data      0.114092                       # miss rate for overall accesses
system.l2c.overall_miss_rate::cpu1.dtb.walker     0.011478                       # miss rate for overall accesses
system.l2c.overall_miss_rate::cpu1.itb.walker     0.019901                       # miss rate for overall accesses
system.l2c.overall_miss_rate::cpu1.inst      0.004809                       # miss rate for overall accesses
system.l2c.overall_miss_rate::cpu1.data      0.111904                       # miss rate for overall accesses
system.l2c.overall_miss_rate::total          0.049665                       # miss rate for overall accesses
system.l2c.blocked_cycles::no_mshrs                 0                       # number of cycles access was blocked
system.l2c.blocked_cycles::no_targets               0                       # number of cycles access was blocked
system.l2c.blocked::no_mshrs                        0                       # number of cycles access was blocked
system.l2c.blocked::no_targets                      0                       # number of cycles access was blocked
system.l2c.avg_blocked_cycles::no_mshrs           nan                       # average number of cycles each access was blocked
system.l2c.avg_blocked_cycles::no_targets          nan                       # average number of cycles each access was blocked
system.l2c.writebacks::writebacks             1507035                       # number of writebacks
system.l2c.writebacks::total                  1507035                       # number of writebacks
system.membus.snoop_filter.tot_requests       3814231                       # Total number of requests made to the snoop filter.
system.membus.snoop_filter.hit_single_requests      1911351                       # Number of requests hitting in the snoop filter with a single holder of the requested data.
system.membus.snoop_filter.hit_multi_requests         2893                       # Number of requests hitting in the snoop filter with multiple (>1) holders of the requested data.
system.membus.snoop_filter.tot_snoops               0                       # Total number of snoops made to the snoop filter.
system.membus.snoop_filter.hit_single_snoops            0                       # Number of snoops hitting in the snoop filter with a single holder of the requested data.
system.membus.snoop_filter.hit_multi_snoops            0                       # Number of snoops hitting in the snoop filter with multiple (>1) holders of the requested data.
system.membus.trans_dist::ReadReq               76679                       # Transaction distribution
system.membus.trans_dist::ReadResp             524759                       # Transaction distribution
system.membus.trans_dist::WriteReq              33606                       # Transaction distribution
system.membus.trans_dist::WriteResp             33606                       # Transaction distribution
system.membus.trans_dist::WritebackDirty      1613666                       # Transaction distribution
system.membus.trans_dist::CleanEvict           226120                       # Transaction distribution
system.membus.trans_dist::UpgradeReq            40498                       # Transaction distribution
system.membus.trans_dist::SCUpgradeReq              1                       # Transaction distribution
system.membus.trans_dist::UpgradeResp           40499                       # Transaction distribution
system.membus.trans_dist::ReadExReq            826686                       # Transaction distribution
system.membus.trans_dist::ReadExResp           826686                       # Transaction distribution
system.membus.trans_dist::ReadSharedReq        448080                       # Transaction distribution
system.membus.trans_dist::InvalidateReq        659180                       # Transaction distribution
system.membus.trans_dist::InvalidateResp       659180                       # Transaction distribution
system.membus.pkt_count_system.l2c.mem_side::system.bridge.slave       122480                       # Packet count per connected master and slave (bytes)
system.membus.pkt_count_system.l2c.mem_side::system.realview.nvmem.port           58                       # Packet count per connected master and slave (bytes)
system.membus.pkt_count_system.l2c.mem_side::system.realview.gic.pio         6654                       # Packet count per connected master and slave (bytes)
system.membus.pkt_count_system.l2c.mem_side::system.physmem.port      5533540                       # Packet count per connected master and slave (bytes)
system.membus.pkt_count_system.l2c.mem_side::total      5662732                       # Packet count per connected master and slave (bytes)
system.membus.pkt_count_system.iocache.mem_side::system.physmem.port       346514                       # Packet count per connected master and slave (bytes)
system.membus.pkt_count_system.iocache.mem_side::total       346514                       # Packet count per connected master and slave (bytes)
system.membus.pkt_count::total                6009246                       # Packet count per connected master and slave (bytes)
system.membus.pkt_size_system.l2c.mem_side::system.bridge.slave       155610                       # Cumulative packet size per connected master and slave (bytes)
system.membus.pkt_size_system.l2c.mem_side::system.realview.nvmem.port          132                       # Cumulative packet size per connected master and slave (bytes)
system.membus.pkt_size_system.l2c.mem_side::system.realview.gic.pio        13308                       # Cumulative packet size per connected master and slave (bytes)
system.membus.pkt_size_system.l2c.mem_side::system.physmem.port    177661536                       # Cumulative packet size per connected master and slave (bytes)
system.membus.pkt_size_system.l2c.mem_side::total    177830586                       # Cumulative packet size per connected master and slave (bytes)
system.membus.pkt_size_system.iocache.mem_side::system.physmem.port      7391232                       # Cumulative packet size per connected master and slave (bytes)
system.membus.pkt_size_system.iocache.mem_side::total      7391232                       # Cumulative packet size per connected master and slave (bytes)
system.membus.pkt_size::total               185221818                       # Cumulative packet size per connected master and slave (bytes)
system.membus.snoops                                0                       # Total snoops (count)
system.membus.snoop_fanout::samples           3924516                       # Request fanout histogram
system.membus.snoop_fanout::mean             0.009389                       # Request fanout histogram
system.membus.snoop_fanout::stdev            0.096443                       # Request fanout histogram
system.membus.snoop_fanout::underflows              0      0.00%      0.00% # Request fanout histogram
system.membus.snoop_fanout::0                 3887667     99.06%     99.06% # Request fanout histogram
system.membus.snoop_fanout::1                   36849      0.94%    100.00% # Request fanout histogram
system.membus.snoop_fanout::2                       0      0.00%    100.00% # Request fanout histogram
system.membus.snoop_fanout::overflows               0      0.00%    100.00% # Request fanout histogram
system.membus.snoop_fanout::min_value               0                       # Request fanout histogram
system.membus.snoop_fanout::max_value               1                       # Request fanout histogram
system.membus.snoop_fanout::total             3924516                       # Request fanout histogram
system.realview.dcc.osc_cpu.clock               16667                       # Clock period in ticks
system.realview.dcc.osc_ddr.clock               25000                       # Clock period in ticks
system.realview.dcc.osc_hsbm.clock              25000                       # Clock period in ticks
system.realview.dcc.osc_pxl.clock               42105                       # Clock period in ticks
system.realview.dcc.osc_smb.clock               20000                       # Clock period in ticks
system.realview.dcc.osc_sys.clock               16667                       # Clock period in ticks
system.realview.ethernet.txBytes                  966                       # Bytes Transmitted
system.realview.ethernet.txPackets                  3                       # Number of Packets Transmitted
system.realview.ethernet.txIpChecksums              0                       # Number of tx IP Checksums done by device
system.realview.ethernet.txTcpChecksums             0                       # Number of tx TCP Checksums done by device
system.realview.ethernet.txUdpChecksums             0                       # Number of tx UDP Checksums done by device
system.realview.ethernet.descDMAReads               0                       # Number of descriptors the device read w/ DMA
system.realview.ethernet.descDMAWrites              0                       # Number of descriptors the device wrote w/ DMA
system.realview.ethernet.descDmaReadBytes            0                       # number of descriptor bytes read w/ DMA
system.realview.ethernet.descDmaWriteBytes            0                       # number of descriptor bytes write w/ DMA
system.realview.ethernet.totBandwidth             151                       # Total Bandwidth (bits/s)
system.realview.ethernet.totPackets                 3                       # Total Packets
system.realview.ethernet.totBytes                 966                       # Total Bytes
system.realview.ethernet.totPPS                     0                       # Total Tranmission Rate (packets/s)
system.realview.ethernet.txBandwidth              151                       # Transmit Bandwidth (bits/s)
system.realview.ethernet.txPPS                      0                       # Packet Tranmission Rate (packets/s)
system.realview.ethernet.postedSwi                  0                       # number of software interrupts posted to CPU
system.realview.ethernet.coalescedSwi               0                       # average number of Swi's coalesced into each post
system.realview.ethernet.totalSwi                   0                       # total number of Swi written to ISR
system.realview.ethernet.postedRxIdle               0                       # number of rxIdle interrupts posted to CPU
system.realview.ethernet.coalescedRxIdle            0                       # average number of RxIdle's coalesced into each post
system.realview.ethernet.totalRxIdle                0                       # total number of RxIdle written to ISR
system.realview.ethernet.postedRxOk                 0                       # number of RxOk interrupts posted to CPU
system.realview.ethernet.coalescedRxOk              0                       # average number of RxOk's coalesced into each post
system.realview.ethernet.totalRxOk                  0                       # total number of RxOk written to ISR
system.realview.ethernet.postedRxDesc               0                       # number of RxDesc interrupts posted to CPU
system.realview.ethernet.coalescedRxDesc            0                       # average number of RxDesc's coalesced into each post
system.realview.ethernet.totalRxDesc                0                       # total number of RxDesc written to ISR
system.realview.ethernet.postedTxOk                 0                       # number of TxOk interrupts posted to CPU
system.realview.ethernet.coalescedTxOk              0                       # average number of TxOk's coalesced into each post
system.realview.ethernet.totalTxOk                  0                       # total number of TxOk written to ISR
system.realview.ethernet.postedTxIdle               0                       # number of TxIdle interrupts posted to CPU
system.realview.ethernet.coalescedTxIdle            0                       # average number of TxIdle's coalesced into each post
system.realview.ethernet.totalTxIdle                0                       # total number of TxIdle written to ISR
system.realview.ethernet.postedTxDesc               0                       # number of TxDesc interrupts posted to CPU
system.realview.ethernet.coalescedTxDesc            0                       # average number of TxDesc's coalesced into each post
system.realview.ethernet.totalTxDesc                0                       # total number of TxDesc written to ISR
system.realview.ethernet.postedRxOrn                0                       # number of RxOrn posted to CPU
system.realview.ethernet.coalescedRxOrn             0                       # average number of RxOrn's coalesced into each post
system.realview.ethernet.totalRxOrn                 0                       # total number of RxOrn written to ISR
system.realview.ethernet.coalescedTotal             0                       # average number of interrupts coalesced into each post
system.realview.ethernet.postedInterrupts           18                       # number of posts to CPU
system.realview.ethernet.droppedPackets             0                       # number of packets dropped
system.realview.mcc.osc_clcd.clock              42105                       # Clock period in ticks
system.realview.mcc.osc_mcc.clock               20000                       # Clock period in ticks
system.realview.mcc.osc_peripheral.clock        41667                       # Clock period in ticks
system.realview.mcc.osc_system_bus.clock        41667                       # Clock period in ticks
system.toL2Bus.snoop_filter.tot_requests     52432480                       # Total number of requests made to the snoop filter.
system.toL2Bus.snoop_filter.hit_single_requests     26546586                       # Number of requests hitting in the snoop filter with a single holder of the requested data.
system.toL2Bus.snoop_filter.hit_multi_requests         1741                       # Number of requests hitting in the snoop filter with multiple (>1) holders of the requested data.
system.toL2Bus.snoop_filter.tot_snoops           2697                       # Total number of snoops made to the snoop filter.
system.toL2Bus.snoop_filter.hit_single_snoops         2697                       # Number of snoops hitting in the snoop filter with a single holder of the requested data.
system.toL2Bus.snoop_filter.hit_multi_snoops            0                       # Number of snoops hitting in the snoop filter with multiple (>1) holders of the requested data.
system.toL2Bus.trans_dist::ReadReq            1321968                       # Transaction distribution
system.toL2Bus.trans_dist::ReadResp          23443629                       # Transaction distribution
system.toL2Bus.trans_dist::WriteReq             33606                       # Transaction distribution
system.toL2Bus.trans_dist::WriteResp            33606                       # Transaction distribution
system.toL2Bus.trans_dist::WritebackDirty      8920157                       # Transaction distribution
system.toL2Bus.trans_dist::WritebackClean     14275419                       # Transaction distribution
system.toL2Bus.trans_dist::CleanEvict         2689286                       # Transaction distribution
system.toL2Bus.trans_dist::UpgradeReq           51144                       # Transaction distribution
system.toL2Bus.trans_dist::SCUpgradeReq             1                       # Transaction distribution
system.toL2Bus.trans_dist::UpgradeResp          51145                       # Transaction distribution
system.toL2Bus.trans_dist::ReadExReq          2518022                       # Transaction distribution
system.toL2Bus.trans_dist::ReadExResp         2518022                       # Transaction distribution
system.toL2Bus.trans_dist::ReadCleanReq      14275936                       # Transaction distribution
system.toL2Bus.trans_dist::ReadSharedReq      7845725                       # Transaction distribution
system.toL2Bus.trans_dist::InvalidateReq      1246217                       # Transaction distribution
system.toL2Bus.trans_dist::InvalidateResp      1246217                       # Transaction distribution
system.toL2Bus.pkt_count_system.cpu0.icache.mem_side::system.l2c.cpu_side     42913541                       # Packet count per connected master and slave (bytes)
system.toL2Bus.pkt_count_system.cpu0.dcache.mem_side::system.l2c.cpu_side     35065981                       # Packet count per connected master and slave (bytes)
system.toL2Bus.pkt_count_system.cpu0.itb.walker.dma::system.l2c.cpu_side       831270                       # Packet count per connected master and slave (bytes)
system.toL2Bus.pkt_count_system.cpu0.dtb.walker.dma::system.l2c.cpu_side      1659308                       # Packet count per connected master and slave (bytes)
system.toL2Bus.pkt_count::total              80470100                       # Packet count per connected master and slave (bytes)
system.toL2Bus.pkt_size_system.cpu0.icache.mem_side::system.l2c.cpu_side   1827459220                       # Cumulative packet size per connected master and slave (bytes)
system.toL2Bus.pkt_size_system.cpu0.dcache.mem_side::system.l2c.cpu_side   1234359526                       # Cumulative packet size per connected master and slave (bytes)
system.toL2Bus.pkt_size_system.cpu0.itb.walker.dma::system.l2c.cpu_side      3325080                       # Cumulative packet size per connected master and slave (bytes)
system.toL2Bus.pkt_size_system.cpu0.dtb.walker.dma::system.l2c.cpu_side      6637232                       # Cumulative packet size per connected master and slave (bytes)
system.toL2Bus.pkt_size::total             3071781058                       # Cumulative packet size per connected master and slave (bytes)
system.toL2Bus.snoops                         1762525                       # Total snoops (count)
system.toL2Bus.snoop_fanout::samples         54939201                       # Request fanout histogram
system.toL2Bus.snoop_fanout::mean            0.011226                       # Request fanout histogram
system.toL2Bus.snoop_fanout::stdev           0.105357                       # Request fanout histogram
system.toL2Bus.snoop_fanout::underflows             0      0.00%      0.00% # Request fanout histogram
system.toL2Bus.snoop_fanout::0               54322443     98.88%     98.88% # Request fanout histogram
system.toL2Bus.snoop_fanout::1                 616758      1.12%    100.00% # Request fanout histogram
system.toL2Bus.snoop_fanout::2                      0      0.00%    100.00% # Request fanout histogram
system.toL2Bus.snoop_fanout::overflows              0      0.00%    100.00% # Request fanout histogram
system.toL2Bus.snoop_fanout::min_value              0                       # Request fanout histogram
system.toL2Bus.snoop_fanout::max_value              1                       # Request fanout histogram
system.toL2Bus.snoop_fanout::total           54939201                       # Request fanout histogram

---------- End Simulation Statistics   ----------
