
---------- Begin Simulation Statistics ----------
host_inst_rate                                 608858                       # Simulator instruction rate (inst/s)
host_mem_usage                                 220444                       # Number of bytes of host memory used
host_seconds                                   360.40                       # Real time elapsed on the host
host_tick_rate                              361897269                       # Simulator tick rate (ticks/s)
sim_freq                                 1000000000000                       # Frequency of simulated ticks
sim_insts                                   219430973                       # Number of instructions simulated
sim_seconds                                  0.130427                       # Number of seconds simulated
sim_ticks                                130427072000                       # Number of ticks simulated
system.cpu.idle_fraction                            0                       # Percentage of idle cycles
system.cpu.not_idle_fraction                        1                       # Percentage of non-idle cycles
system.cpu.numCycles                        260854145                       # number of cpu cycles simulated
system.cpu.num_insts                        219430973                       # Number of instructions executed
system.cpu.num_refs                          77165298                       # Number of memory references
system.cpu.workload.PROG:num_syscalls             400                       # Number of system calls

---------- End Simulation Statistics   ----------
