gem5 Simulator System.  http://gem5.org
gem5 is copyrighted software; use the --copyright option for details.

gem5 compiled Jul 15 2011 17:48:05
gem5 started Jul 15 2011 20:13:48
gem5 executing on u200439-lin.austin.arm.com
command line: build/MIPS_SE/gem5.opt -d build/MIPS_SE/tests/opt/quick/00.hello/mips/linux/o3-timing -re tests/run.py build/MIPS_SE/tests/opt/quick/00.hello/mips/linux/o3-timing
Global frequency set at 1000000000000 ticks per second
info: Entering event queue @ 0.  Starting simulation...
info: Increasing stack size by one page.
Hello World!
Exiting @ tick 12273500 because target called exit()
