gem5 Simulator System.  http://gem5.org
gem5 is copyrighted software; use the --copyright option for details.

gem5 compiled Aug 13 2015 19:16:05
gem5 started Aug 13 2015 20:15:53
gem5 executing on artery
command line: build/ALPHA_MESI_Two_Level/gem5.opt -d build/ALPHA_MESI_Two_Level/tests/opt/quick/se/60.rubytest/alpha/linux/rubytest-ruby-MESI_Two_Level -re /home/joel/research/gem5/gem5/tests/run.py build/ALPHA_MESI_Two_Level/tests/opt/quick/se/60.rubytest/alpha/linux/rubytest-ruby-MESI_Two_Level

Global frequency set at 1000000000 ticks per second
info: Entering event queue @ 0.  Starting simulation...
Exiting @ tick 42571 because Ruby Tester completed
