
---------- Begin Simulation Statistics ----------
sim_seconds                                  0.000328                       # Number of seconds simulated
sim_ticks                                      327571                       # Number of ticks simulated
final_tick                                     327571                       # Number of ticks from beginning of simulation (restored from checkpoints and never reset)
sim_freq                                   1000000000                       # Frequency of simulated ticks
host_tick_rate                                1251967                       # Simulator tick rate (ticks/s)
host_mem_usage                                 128368                       # Number of bytes of host memory used
host_seconds                                     0.26                       # Real time elapsed on the host
system.voltage_domain.voltage                       1                       # Voltage in Volts
system.clk_domain.clock                             1                       # Clock period in ticks
system.ruby.clk_domain.clock                        1                       # Clock period in ticks
system.ruby.delayHist::bucket_size                512                       # delay histogram for all message
system.ruby.delayHist::max_bucket                5119                       # delay histogram for all message
system.ruby.delayHist::samples                   7183                       # delay histogram for all message
system.ruby.delayHist::mean                 55.693443                       # delay histogram for all message
system.ruby.delayHist::stdev               252.452700                       # delay histogram for all message
system.ruby.delayHist                    |        6908     96.17%     96.17% |         159      2.21%     98.39% |          57      0.79%     99.18% |          31      0.43%     99.61% |          18      0.25%     99.86% |           9      0.13%     99.99% |           0      0.00%     99.99% |           0      0.00%     99.99% |           1      0.01%    100.00% |           0      0.00%    100.00% # delay histogram for all message
system.ruby.delayHist::total                     7183                       # delay histogram for all message
system.ruby.outstanding_req_hist::bucket_size            2                      
system.ruby.outstanding_req_hist::max_bucket           19                      
system.ruby.outstanding_req_hist::samples         1017                      
system.ruby.outstanding_req_hist::mean      15.830875                      
system.ruby.outstanding_req_hist::gmean     15.734065                      
system.ruby.outstanding_req_hist::stdev      1.114909                      
system.ruby.outstanding_req_hist         |           1      0.10%      0.10% |           2      0.20%      0.29% |           2      0.20%      0.49% |           2      0.20%      0.69% |           2      0.20%      0.88% |           2      0.20%      1.08% |           2      0.20%      1.28% |          54      5.31%      6.59% |         950     93.41%    100.00% |           0      0.00%    100.00%
system.ruby.outstanding_req_hist::total          1017                      
system.ruby.latency_hist::bucket_size            1024                      
system.ruby.latency_hist::max_bucket            10239                      
system.ruby.latency_hist::samples                1002                      
system.ruby.latency_hist::mean            5171.353293                      
system.ruby.latency_hist::gmean           2828.922262                      
system.ruby.latency_hist::stdev           2096.025855                      
system.ruby.latency_hist                 |         135     13.47%     13.47% |          12      1.20%     14.67% |           4      0.40%     15.07% |           4      0.40%     15.47% |          30      2.99%     18.46% |         460     45.91%     64.37% |         320     31.94%     96.31% |          37      3.69%    100.00% |           0      0.00%    100.00% |           0      0.00%    100.00%
system.ruby.latency_hist::total                  1002                      
system.ruby.hit_latency_hist::bucket_size           16                      
system.ruby.hit_latency_hist::max_bucket          159                      
system.ruby.hit_latency_hist::samples              77                      
system.ruby.hit_latency_hist::mean           9.597403                      
system.ruby.hit_latency_hist::gmean          2.761367                      
system.ruby.hit_latency_hist::stdev         27.303489                      
system.ruby.hit_latency_hist             |          72     93.51%     93.51% |           0      0.00%     93.51% |           0      0.00%     93.51% |           0      0.00%     93.51% |           0      0.00%     93.51% |           0      0.00%     93.51% |           2      2.60%     96.10% |           3      3.90%    100.00% |           0      0.00%    100.00% |           0      0.00%    100.00%
system.ruby.hit_latency_hist::total                77                      
system.ruby.miss_latency_hist::bucket_size         1024                      
system.ruby.miss_latency_hist::max_bucket        10239                      
system.ruby.miss_latency_hist::samples            925                      
system.ruby.miss_latency_hist::mean       5601.034595                      
system.ruby.miss_latency_hist::gmean      5037.610012                      
system.ruby.miss_latency_hist::stdev      1534.352398                      
system.ruby.miss_latency_hist            |          58      6.27%      6.27% |          12      1.30%      7.57% |           4      0.43%      8.00% |           4      0.43%      8.43% |          30      3.24%     11.68% |         460     49.73%     61.41% |         320     34.59%     96.00% |          37      4.00%    100.00% |           0      0.00%    100.00% |           0      0.00%    100.00%
system.ruby.miss_latency_hist::total              925                      
system.ruby.l1_cntrl0.L1Dcache.demand_hits           77                       # Number of cache demand hits
system.ruby.l1_cntrl0.L1Dcache.demand_misses          881                       # Number of cache demand misses
system.ruby.l1_cntrl0.L1Dcache.demand_accesses          958                       # Number of cache demand accesses
system.ruby.l1_cntrl0.L1Icache.demand_hits            0                       # Number of cache demand hits
system.ruby.l1_cntrl0.L1Icache.demand_misses           46                       # Number of cache demand misses
system.ruby.l1_cntrl0.L1Icache.demand_accesses           46                       # Number of cache demand accesses
system.ruby.l1_cntrl0.prefetcher.miss_observed            0                       # number of misses observed
system.ruby.l1_cntrl0.prefetcher.allocated_streams            0                       # number of streams allocated for prefetching
system.ruby.l1_cntrl0.prefetcher.prefetches_requested            0                       # number of prefetch requests made
system.ruby.l1_cntrl0.prefetcher.prefetches_accepted            0                       # number of prefetch requests accepted
system.ruby.l1_cntrl0.prefetcher.dropped_prefetches            0                       # number of prefetch requests dropped
system.ruby.l1_cntrl0.prefetcher.hits               0                       # number of prefetched blocks accessed
system.ruby.l1_cntrl0.prefetcher.partial_hits            0                       # number of misses observed for a block being prefetched
system.ruby.l1_cntrl0.prefetcher.pages_crossed            0                       # number of prefetches across pages
system.ruby.l1_cntrl0.prefetcher.misses_on_prefetched_blocks            0                       # number of misses for blocks that were prefetched, yet missed
system.ruby.l1_cntrl0.sequencer.store_waiting_on_load            6                       # Number of times a store aliased with a pending load
system.ruby.l1_cntrl0.sequencer.store_waiting_on_store          110                       # Number of times a store aliased with a pending store
system.ruby.l1_cntrl0.sequencer.load_waiting_on_store           10                       # Number of times a load aliased with a pending store
system.ruby.network.routers0.percent_links_utilized     1.749086                      
system.ruby.network.routers0.msg_count.Control::0          925                      
system.ruby.network.routers0.msg_count.Request_Control::2          563                      
system.ruby.network.routers0.msg_count.Response_Data::1          925                      
system.ruby.network.routers0.msg_count.Response_Control::1          827                      
system.ruby.network.routers0.msg_count.Response_Control::2          877                      
system.ruby.network.routers0.msg_count.Writeback_Data::0          742                      
system.ruby.network.routers0.msg_count.Writeback_Data::1          520                      
system.ruby.network.routers0.msg_count.Writeback_Control::0           43                      
system.ruby.network.routers0.msg_bytes.Control::0         7400                      
system.ruby.network.routers0.msg_bytes.Request_Control::2         4504                      
system.ruby.network.routers0.msg_bytes.Response_Data::1        66600                      
system.ruby.network.routers0.msg_bytes.Response_Control::1         6616                      
system.ruby.network.routers0.msg_bytes.Response_Control::2         7016                      
system.ruby.network.routers0.msg_bytes.Writeback_Data::0        53424                      
system.ruby.network.routers0.msg_bytes.Writeback_Data::1        37440                      
system.ruby.network.routers0.msg_bytes.Writeback_Control::0          344                      
system.ruby.l2_cntrl0.L2cache.demand_hits           41                       # Number of cache demand hits
system.ruby.l2_cntrl0.L2cache.demand_misses          884                       # Number of cache demand misses
system.ruby.l2_cntrl0.L2cache.demand_accesses          925                       # Number of cache demand accesses
system.ruby.network.routers1.percent_links_utilized     3.043386                      
system.ruby.network.routers1.msg_count.Control::0         1809                      
system.ruby.network.routers1.msg_count.Request_Control::2          563                      
system.ruby.network.routers1.msg_count.Response_Data::1         2604                      
system.ruby.network.routers1.msg_count.Response_Control::1         1791                      
system.ruby.network.routers1.msg_count.Response_Control::2          877                      
system.ruby.network.routers1.msg_count.Writeback_Data::0          742                      
system.ruby.network.routers1.msg_count.Writeback_Data::1          520                      
system.ruby.network.routers1.msg_count.Writeback_Control::0           43                      
system.ruby.network.routers1.msg_bytes.Control::0        14472                      
system.ruby.network.routers1.msg_bytes.Request_Control::2         4504                      
system.ruby.network.routers1.msg_bytes.Response_Data::1       187488                      
system.ruby.network.routers1.msg_bytes.Response_Control::1        14328                      
system.ruby.network.routers1.msg_bytes.Response_Control::2         7016                      
system.ruby.network.routers1.msg_bytes.Writeback_Data::0        53424                      
system.ruby.network.routers1.msg_bytes.Writeback_Data::1        37440                      
system.ruby.network.routers1.msg_bytes.Writeback_Control::0          344                      
system.ruby.memctrl_clk_domain.clock                3                       # Clock period in ticks
system.ruby.dir_cntrl0.memBuffer.memReq          1679                       # Total number of memory requests
system.ruby.dir_cntrl0.memBuffer.memRead          884                       # Number of memory reads
system.ruby.dir_cntrl0.memBuffer.memWrite          795                       # Number of memory writes
system.ruby.dir_cntrl0.memBuffer.memRefresh         2274                       # Number of memory refreshes
system.ruby.dir_cntrl0.memBuffer.memWaitCycles          511                       # Delay stalled at the head of the bank queue
system.ruby.dir_cntrl0.memBuffer.memInputQ           43                       # Delay in the input queue
system.ruby.dir_cntrl0.memBuffer.totalStalls          554                       # Total number of stall cycles
system.ruby.dir_cntrl0.memBuffer.stallsPerReq     0.329958                       # Expected number of stall cycles per request
system.ruby.dir_cntrl0.memBuffer.memBankBusy          149                       # memory stalls due to busy bank
system.ruby.dir_cntrl0.memBuffer.memBusBusy          180                       # memory stalls due to busy bus
system.ruby.dir_cntrl0.memBuffer.memReadWriteBusy           93                       # memory stalls due to read write turnaround
system.ruby.dir_cntrl0.memBuffer.memDataBusBusy           60                       # memory stalls due to read read turnaround
system.ruby.dir_cntrl0.memBuffer.memArbWait           29                       # memory stalls due to arbitration
system.ruby.dir_cntrl0.memBuffer.memBankCount |          59      3.51%      3.51% |          51      3.04%      6.55% |          42      2.50%      9.05% |         102      6.08%     15.13% |          61      3.63%     18.76% |          47      2.80%     21.56% |          70      4.17%     25.73% |          56      3.34%     29.06% |          51      3.04%     32.10% |          62      3.69%     35.80% |          53      3.16%     38.95% |          35      2.08%     41.04% |          65      3.87%     44.91% |          50      2.98%     47.89% |          40      2.38%     50.27% |          53      3.16%     53.42% |          36      2.14%     55.57% |          55      3.28%     58.84% |          66      3.93%     62.78% |          41      2.44%     65.22% |          49      2.92%     68.14% |          43      2.56%     70.70% |          65      3.87%     74.57% |          53      3.16%     77.72% |          50      2.98%     80.70% |          53      3.16%     83.86% |          51      3.04%     86.90% |          48      2.86%     89.76% |          44      2.62%     92.38% |          41      2.44%     94.82% |          41      2.44%     97.26% |          46      2.74%    100.00% # Number of accesses per bank
system.ruby.dir_cntrl0.memBuffer.memBankCount::total         1679                       # Number of accesses per bank
system.ruby.network.routers2.percent_links_utilized     1.294300                      
system.ruby.network.routers2.msg_count.Control::0          884                      
system.ruby.network.routers2.msg_count.Response_Data::1         1679                      
system.ruby.network.routers2.msg_count.Response_Control::1          964                      
system.ruby.network.routers2.msg_bytes.Control::0         7072                      
system.ruby.network.routers2.msg_bytes.Response_Data::1       120888                      
system.ruby.network.routers2.msg_bytes.Response_Control::1         7712                      
system.ruby.network.routers3.percent_links_utilized     2.028924                      
system.ruby.network.routers3.msg_count.Control::0         1809                      
system.ruby.network.routers3.msg_count.Request_Control::2          563                      
system.ruby.network.routers3.msg_count.Response_Data::1         2604                      
system.ruby.network.routers3.msg_count.Response_Control::1         1791                      
system.ruby.network.routers3.msg_count.Response_Control::2          877                      
system.ruby.network.routers3.msg_count.Writeback_Data::0          742                      
system.ruby.network.routers3.msg_count.Writeback_Data::1          520                      
system.ruby.network.routers3.msg_count.Writeback_Control::0           43                      
system.ruby.network.routers3.msg_bytes.Control::0        14472                      
system.ruby.network.routers3.msg_bytes.Request_Control::2         4504                      
system.ruby.network.routers3.msg_bytes.Response_Data::1       187488                      
system.ruby.network.routers3.msg_bytes.Response_Control::1        14328                      
system.ruby.network.routers3.msg_bytes.Response_Control::2         7016                      
system.ruby.network.routers3.msg_bytes.Writeback_Data::0        53424                      
system.ruby.network.routers3.msg_bytes.Writeback_Data::1        37440                      
system.ruby.network.routers3.msg_bytes.Writeback_Control::0          344                      
system.ruby.network.msg_count.Control            5427                      
system.ruby.network.msg_count.Request_Control         1689                      
system.ruby.network.msg_count.Response_Data         7812                      
system.ruby.network.msg_count.Response_Control         8004                      
system.ruby.network.msg_count.Writeback_Data         3786                      
system.ruby.network.msg_count.Writeback_Control          129                      
system.ruby.network.msg_byte.Control            43416                      
system.ruby.network.msg_byte.Request_Control        13512                      
system.ruby.network.msg_byte.Response_Data       562464                      
system.ruby.network.msg_byte.Response_Control        64032                      
system.ruby.network.msg_byte.Writeback_Data       272592                      
system.ruby.network.msg_byte.Writeback_Control         1032                      
system.ruby.network.routers0.throttle0.link_utilization     1.476321                      
system.ruby.network.routers0.throttle0.msg_count.Request_Control::2          563                      
system.ruby.network.routers0.throttle0.msg_count.Response_Data::1          925                      
system.ruby.network.routers0.throttle0.msg_count.Response_Control::1          784                      
system.ruby.network.routers0.throttle0.msg_bytes.Request_Control::2         4504                      
system.ruby.network.routers0.throttle0.msg_bytes.Response_Data::1        66600                      
system.ruby.network.routers0.throttle0.msg_bytes.Response_Control::1         6272                      
system.ruby.network.routers0.throttle1.link_utilization     2.021852                      
system.ruby.network.routers0.throttle1.msg_count.Control::0          925                      
system.ruby.network.routers0.throttle1.msg_count.Response_Control::1           43                      
system.ruby.network.routers0.throttle1.msg_count.Response_Control::2          877                      
system.ruby.network.routers0.throttle1.msg_count.Writeback_Data::0          742                      
system.ruby.network.routers0.throttle1.msg_count.Writeback_Data::1          520                      
system.ruby.network.routers0.throttle1.msg_count.Writeback_Control::0           43                      
system.ruby.network.routers0.throttle1.msg_bytes.Control::0         7400                      
system.ruby.network.routers0.throttle1.msg_bytes.Response_Control::1          344                      
system.ruby.network.routers0.throttle1.msg_bytes.Response_Control::2         7016                      
system.ruby.network.routers0.throttle1.msg_bytes.Writeback_Data::0        53424                      
system.ruby.network.routers0.throttle1.msg_bytes.Writeback_Data::1        37440                      
system.ruby.network.routers0.throttle1.msg_bytes.Writeback_Control::0          344                      
system.ruby.network.routers1.throttle0.link_utilization     3.370414                      
system.ruby.network.routers1.throttle0.msg_count.Control::0          925                      
system.ruby.network.routers1.throttle0.msg_count.Response_Data::1          884                      
system.ruby.network.routers1.throttle0.msg_count.Response_Control::1          922                      
system.ruby.network.routers1.throttle0.msg_count.Response_Control::2          877                      
system.ruby.network.routers1.throttle0.msg_count.Writeback_Data::0          742                      
system.ruby.network.routers1.throttle0.msg_count.Writeback_Data::1          520                      
system.ruby.network.routers1.throttle0.msg_count.Writeback_Control::0           43                      
system.ruby.network.routers1.throttle0.msg_bytes.Control::0         7400                      
system.ruby.network.routers1.throttle0.msg_bytes.Response_Data::1        63648                      
system.ruby.network.routers1.throttle0.msg_bytes.Response_Control::1         7376                      
system.ruby.network.routers1.throttle0.msg_bytes.Response_Control::2         7016                      
system.ruby.network.routers1.throttle0.msg_bytes.Writeback_Data::0        53424                      
system.ruby.network.routers1.throttle0.msg_bytes.Writeback_Data::1        37440                      
system.ruby.network.routers1.throttle0.msg_bytes.Writeback_Control::0          344                      
system.ruby.network.routers1.throttle1.link_utilization     2.716358                      
system.ruby.network.routers1.throttle1.msg_count.Control::0          884                      
system.ruby.network.routers1.throttle1.msg_count.Request_Control::2          563                      
system.ruby.network.routers1.throttle1.msg_count.Response_Data::1         1720                      
system.ruby.network.routers1.throttle1.msg_count.Response_Control::1          869                      
system.ruby.network.routers1.throttle1.msg_bytes.Control::0         7072                      
system.ruby.network.routers1.throttle1.msg_bytes.Request_Control::2         4504                      
system.ruby.network.routers1.throttle1.msg_bytes.Response_Data::1       123840                      
system.ruby.network.routers1.throttle1.msg_bytes.Response_Control::1         6952                      
system.ruby.network.routers2.throttle0.link_utilization     1.240037                      
system.ruby.network.routers2.throttle0.msg_count.Control::0          884                      
system.ruby.network.routers2.throttle0.msg_count.Response_Data::1          795                      
system.ruby.network.routers2.throttle0.msg_count.Response_Control::1           85                      
system.ruby.network.routers2.throttle0.msg_bytes.Control::0         7072                      
system.ruby.network.routers2.throttle0.msg_bytes.Response_Data::1        57240                      
system.ruby.network.routers2.throttle0.msg_bytes.Response_Control::1          680                      
system.ruby.network.routers2.throttle1.link_utilization     1.348563                      
system.ruby.network.routers2.throttle1.msg_count.Response_Data::1          884                      
system.ruby.network.routers2.throttle1.msg_count.Response_Control::1          879                      
system.ruby.network.routers2.throttle1.msg_bytes.Response_Data::1        63648                      
system.ruby.network.routers2.throttle1.msg_bytes.Response_Control::1         7032                      
system.ruby.network.routers3.throttle0.link_utilization     1.476321                      
system.ruby.network.routers3.throttle0.msg_count.Request_Control::2          563                      
system.ruby.network.routers3.throttle0.msg_count.Response_Data::1          925                      
system.ruby.network.routers3.throttle0.msg_count.Response_Control::1          784                      
system.ruby.network.routers3.throttle0.msg_bytes.Request_Control::2         4504                      
system.ruby.network.routers3.throttle0.msg_bytes.Response_Data::1        66600                      
system.ruby.network.routers3.throttle0.msg_bytes.Response_Control::1         6272                      
system.ruby.network.routers3.throttle1.link_utilization     3.370414                      
system.ruby.network.routers3.throttle1.msg_count.Control::0          925                      
system.ruby.network.routers3.throttle1.msg_count.Response_Data::1          884                      
system.ruby.network.routers3.throttle1.msg_count.Response_Control::1          922                      
system.ruby.network.routers3.throttle1.msg_count.Response_Control::2          877                      
system.ruby.network.routers3.throttle1.msg_count.Writeback_Data::0          742                      
system.ruby.network.routers3.throttle1.msg_count.Writeback_Data::1          520                      
system.ruby.network.routers3.throttle1.msg_count.Writeback_Control::0           43                      
system.ruby.network.routers3.throttle1.msg_bytes.Control::0         7400                      
system.ruby.network.routers3.throttle1.msg_bytes.Response_Data::1        63648                      
system.ruby.network.routers3.throttle1.msg_bytes.Response_Control::1         7376                      
system.ruby.network.routers3.throttle1.msg_bytes.Response_Control::2         7016                      
system.ruby.network.routers3.throttle1.msg_bytes.Writeback_Data::0        53424                      
system.ruby.network.routers3.throttle1.msg_bytes.Writeback_Data::1        37440                      
system.ruby.network.routers3.throttle1.msg_bytes.Writeback_Control::0          344                      
system.ruby.network.routers3.throttle2.link_utilization     1.240037                      
system.ruby.network.routers3.throttle2.msg_count.Control::0          884                      
system.ruby.network.routers3.throttle2.msg_count.Response_Data::1          795                      
system.ruby.network.routers3.throttle2.msg_count.Response_Control::1           85                      
system.ruby.network.routers3.throttle2.msg_bytes.Control::0         7072                      
system.ruby.network.routers3.throttle2.msg_bytes.Response_Data::1        57240                      
system.ruby.network.routers3.throttle2.msg_bytes.Response_Control::1          680                      
system.ruby.delayVCHist.vnet_0::bucket_size          512                       # delay histogram for vnet_0
system.ruby.delayVCHist.vnet_0::max_bucket         5119                       # delay histogram for vnet_0
system.ruby.delayVCHist.vnet_0::samples          2586                       # delay histogram for vnet_0
system.ruby.delayVCHist.vnet_0::mean       153.589327                       # delay histogram for vnet_0
system.ruby.delayVCHist.vnet_0::stdev      402.594576                       # delay histogram for vnet_0
system.ruby.delayVCHist.vnet_0           |        2311     89.37%     89.37% |         159      6.15%     95.51% |          57      2.20%     97.72% |          31      1.20%     98.92% |          18      0.70%     99.61% |           9      0.35%     99.96% |           0      0.00%     99.96% |           0      0.00%     99.96% |           1      0.04%    100.00% |           0      0.00%    100.00% # delay histogram for vnet_0
system.ruby.delayVCHist.vnet_0::total            2586                       # delay histogram for vnet_0
system.ruby.delayVCHist.vnet_1::bucket_size            4                       # delay histogram for vnet_1
system.ruby.delayVCHist.vnet_1::max_bucket           39                       # delay histogram for vnet_1
system.ruby.delayVCHist.vnet_1::samples          4034                       # delay histogram for vnet_1
system.ruby.delayVCHist.vnet_1::mean         0.709470                       # delay histogram for vnet_1
system.ruby.delayVCHist.vnet_1::stdev        2.104009                       # delay histogram for vnet_1
system.ruby.delayVCHist.vnet_1           |        3622     89.79%     89.79% |         315      7.81%     97.60% |          68      1.69%     99.28% |          23      0.57%     99.85% |           5      0.12%     99.98% |           0      0.00%     99.98% |           1      0.02%    100.00% |           0      0.00%    100.00% |           0      0.00%    100.00% |           0      0.00%    100.00% # delay histogram for vnet_1
system.ruby.delayVCHist.vnet_1::total            4034                       # delay histogram for vnet_1
system.ruby.delayVCHist.vnet_2::bucket_size            1                       # delay histogram for vnet_2
system.ruby.delayVCHist.vnet_2::max_bucket            9                       # delay histogram for vnet_2
system.ruby.delayVCHist.vnet_2::samples           563                       # delay histogram for vnet_2
system.ruby.delayVCHist.vnet_2::mean         0.003552                       # delay histogram for vnet_2
system.ruby.delayVCHist.vnet_2::stdev        0.084290                       # delay histogram for vnet_2
system.ruby.delayVCHist.vnet_2           |         562     99.82%     99.82% |           0      0.00%     99.82% |           1      0.18%    100.00% |           0      0.00%    100.00% |           0      0.00%    100.00% |           0      0.00%    100.00% |           0      0.00%    100.00% |           0      0.00%    100.00% |           0      0.00%    100.00% |           0      0.00%    100.00% # delay histogram for vnet_2
system.ruby.delayVCHist.vnet_2::total             563                       # delay histogram for vnet_2
system.ruby.LD.latency_hist::bucket_size         1024                      
system.ruby.LD.latency_hist::max_bucket         10239                      
system.ruby.LD.latency_hist::samples               54                      
system.ruby.LD.latency_hist::mean         5695.537037                      
system.ruby.LD.latency_hist::gmean        3661.591532                      
system.ruby.LD.latency_hist::stdev        1733.262348                      
system.ruby.LD.latency_hist              |           4      7.41%      7.41% |           0      0.00%      7.41% |           0      0.00%      7.41% |           0      0.00%      7.41% |           3      5.56%     12.96% |          19     35.19%     48.15% |          24     44.44%     92.59% |           4      7.41%    100.00% |           0      0.00%    100.00% |           0      0.00%    100.00%
system.ruby.LD.latency_hist::total                 54                      
system.ruby.LD.hit_latency_hist::bucket_size           16                      
system.ruby.LD.hit_latency_hist::max_bucket          159                      
system.ruby.LD.hit_latency_hist::samples            4                      
system.ruby.LD.hit_latency_hist::mean       29.500000                      
system.ruby.LD.hit_latency_hist::gmean       6.027587                      
system.ruby.LD.hit_latency_hist::stdev      53.681157                      
system.ruby.LD.hit_latency_hist          |           3     75.00%     75.00% |           0      0.00%     75.00% |           0      0.00%     75.00% |           0      0.00%     75.00% |           0      0.00%     75.00% |           0      0.00%     75.00% |           1     25.00%    100.00% |           0      0.00%    100.00% |           0      0.00%    100.00% |           0      0.00%    100.00%
system.ruby.LD.hit_latency_hist::total              4                      
system.ruby.LD.miss_latency_hist::bucket_size         1024                      
system.ruby.LD.miss_latency_hist::max_bucket        10239                      
system.ruby.LD.miss_latency_hist::samples           50                      
system.ruby.LD.miss_latency_hist::mean    6148.820000                      
system.ruby.LD.miss_latency_hist::gmean   6114.374114                      
system.ruby.LD.miss_latency_hist::stdev    647.202668                      
system.ruby.LD.miss_latency_hist         |           0      0.00%      0.00% |           0      0.00%      0.00% |           0      0.00%      0.00% |           0      0.00%      0.00% |           3      6.00%      6.00% |          19     38.00%     44.00% |          24     48.00%     92.00% |           4      8.00%    100.00% |           0      0.00%    100.00% |           0      0.00%    100.00%
system.ruby.LD.miss_latency_hist::total            50                      
system.ruby.ST.latency_hist::bucket_size         1024                      
system.ruby.ST.latency_hist::max_bucket         10239                      
system.ruby.ST.latency_hist::samples              902                      
system.ruby.ST.latency_hist::mean         5364.286031                      
system.ruby.ST.latency_hist::gmean        2990.478756                      
system.ruby.ST.latency_hist::stdev        1912.037218                      
system.ruby.ST.latency_hist              |          94     10.42%     10.42% |           4      0.44%     10.86% |           3      0.33%     11.20% |           4      0.44%     11.64% |          27      2.99%     14.63% |         441     48.89%     63.53% |         296     32.82%     96.34% |          33      3.66%    100.00% |           0      0.00%    100.00% |           0      0.00%    100.00%
system.ruby.ST.latency_hist::total                902                      
system.ruby.ST.hit_latency_hist::bucket_size           16                      
system.ruby.ST.hit_latency_hist::max_bucket          159                      
system.ruby.ST.hit_latency_hist::samples           73                      
system.ruby.ST.hit_latency_hist::mean        8.506849                      
system.ruby.ST.hit_latency_hist::gmean       2.645743                      
system.ruby.ST.hit_latency_hist::stdev      25.369559                      
system.ruby.ST.hit_latency_hist          |          69     94.52%     94.52% |           0      0.00%     94.52% |           0      0.00%     94.52% |           0      0.00%     94.52% |           0      0.00%     94.52% |           0      0.00%     94.52% |           1      1.37%     95.89% |           3      4.11%    100.00% |           0      0.00%    100.00% |           0      0.00%    100.00%
system.ruby.ST.hit_latency_hist::total             73                      
system.ruby.ST.miss_latency_hist::bucket_size         1024                      
system.ruby.ST.miss_latency_hist::max_bucket        10239                      
system.ruby.ST.miss_latency_hist::samples          829                      
system.ruby.ST.miss_latency_hist::mean    5835.904704                      
system.ruby.ST.miss_latency_hist::gmean   5553.905612                      
system.ruby.ST.miss_latency_hist::stdev   1107.483624                      
system.ruby.ST.miss_latency_hist         |          21      2.53%      2.53% |           4      0.48%      3.02% |           3      0.36%      3.38% |           4      0.48%      3.86% |          27      3.26%      7.12% |         441     53.20%     60.31% |         296     35.71%     96.02% |          33      3.98%    100.00% |           0      0.00%    100.00% |           0      0.00%    100.00%
system.ruby.ST.miss_latency_hist::total           829                      
system.ruby.IFETCH.latency_hist::bucket_size          256                      
system.ruby.IFETCH.latency_hist::max_bucket         2559                      
system.ruby.IFETCH.latency_hist::samples           46                      
system.ruby.IFETCH.latency_hist::mean      772.847826                      
system.ruby.IFETCH.latency_hist::gmean     703.281758                      
system.ruby.IFETCH.latency_hist::stdev     370.399662                      
system.ruby.IFETCH.latency_hist          |           0      0.00%      0.00% |          10     21.74%     21.74% |          20     43.48%     65.22% |           7     15.22%     80.43% |           3      6.52%     86.96% |           4      8.70%     95.65% |           1      2.17%     97.83% |           0      0.00%     97.83% |           1      2.17%    100.00% |           0      0.00%    100.00%
system.ruby.IFETCH.latency_hist::total             46                      
system.ruby.IFETCH.miss_latency_hist::bucket_size          256                      
system.ruby.IFETCH.miss_latency_hist::max_bucket         2559                      
system.ruby.IFETCH.miss_latency_hist::samples           46                      
system.ruby.IFETCH.miss_latency_hist::mean   772.847826                      
system.ruby.IFETCH.miss_latency_hist::gmean   703.281758                      
system.ruby.IFETCH.miss_latency_hist::stdev   370.399662                      
system.ruby.IFETCH.miss_latency_hist     |           0      0.00%      0.00% |          10     21.74%     21.74% |          20     43.48%     65.22% |           7     15.22%     80.43% |           3      6.52%     86.96% |           4      8.70%     95.65% |           1      2.17%     97.83% |           0      0.00%     97.83% |           1      2.17%    100.00% |           0      0.00%    100.00%
system.ruby.IFETCH.miss_latency_hist::total           46                      
system.ruby.L1Cache_Controller.Load                54      0.00%      0.00%
system.ruby.L1Cache_Controller.Ifetch              54      0.00%      0.00%
system.ruby.L1Cache_Controller.Store              904      0.00%      0.00%
system.ruby.L1Cache_Controller.Inv                563      0.00%      0.00%
system.ruby.L1Cache_Controller.L1_Replacement        10554      0.00%      0.00%
system.ruby.L1Cache_Controller.Data_Exclusive           50      0.00%      0.00%
system.ruby.L1Cache_Controller.Data_all_Acks          875      0.00%      0.00%
system.ruby.L1Cache_Controller.WB_Ack             784      0.00%      0.00%
system.ruby.L1Cache_Controller.NP.Load             50      0.00%      0.00%
system.ruby.L1Cache_Controller.NP.Ifetch           46      0.00%      0.00%
system.ruby.L1Cache_Controller.NP.Store           831      0.00%      0.00%
system.ruby.L1Cache_Controller.NP.Inv               2      0.00%      0.00%
system.ruby.L1Cache_Controller.I.L1_Replacement          125      0.00%      0.00%
system.ruby.L1Cache_Controller.S.Inv               28      0.00%      0.00%
system.ruby.L1Cache_Controller.S.L1_Replacement           10      0.00%      0.00%
system.ruby.L1Cache_Controller.E.Store              1      0.00%      0.00%
system.ruby.L1Cache_Controller.E.Inv                5      0.00%      0.00%
system.ruby.L1Cache_Controller.E.L1_Replacement           44      0.00%      0.00%
system.ruby.L1Cache_Controller.M.Load               4      0.00%      0.00%
system.ruby.L1Cache_Controller.M.Store             72      0.00%      0.00%
system.ruby.L1Cache_Controller.M.Inv               86      0.00%      0.00%
system.ruby.L1Cache_Controller.M.L1_Replacement          743      0.00%      0.00%
system.ruby.L1Cache_Controller.IS.Inv               8      0.00%      0.00%
system.ruby.L1Cache_Controller.IS.L1_Replacement          519      0.00%      0.00%
system.ruby.L1Cache_Controller.IS.Data_Exclusive           50      0.00%      0.00%
system.ruby.L1Cache_Controller.IS.Data_all_Acks           38      0.00%      0.00%
system.ruby.L1Cache_Controller.IM.L1_Replacement         9113      0.00%      0.00%
system.ruby.L1Cache_Controller.IM.Data_all_Acks          829      0.00%      0.00%
system.ruby.L1Cache_Controller.IS_I.Data_all_Acks            8      0.00%      0.00%
system.ruby.L1Cache_Controller.M_I.Ifetch            8      0.00%      0.00%
system.ruby.L1Cache_Controller.M_I.Inv            434      0.00%      0.00%
system.ruby.L1Cache_Controller.M_I.WB_Ack          351      0.00%      0.00%
system.ruby.L1Cache_Controller.SINK_WB_ACK.WB_Ack          433      0.00%      0.00%
system.ruby.L2Cache_Controller.L1_GET_INSTR           47      0.00%      0.00%
system.ruby.L2Cache_Controller.L1_GETS             50      0.00%      0.00%
system.ruby.L2Cache_Controller.L1_GETX            829      0.00%      0.00%
system.ruby.L2Cache_Controller.L1_PUTX            358      0.00%      0.00%
system.ruby.L2Cache_Controller.L1_PUTX_old          826      0.00%      0.00%
system.ruby.L2Cache_Controller.L2_Replacement          302      0.00%      0.00%
system.ruby.L2Cache_Controller.L2_Replacement_clean         1188      0.00%      0.00%
system.ruby.L2Cache_Controller.Mem_Data           884      0.00%      0.00%
system.ruby.L2Cache_Controller.Mem_Ack            878      0.00%      0.00%
system.ruby.L2Cache_Controller.WB_Data            493      0.00%      0.00%
system.ruby.L2Cache_Controller.WB_Data_clean           27      0.00%      0.00%
system.ruby.L2Cache_Controller.Ack_all             43      0.00%      0.00%
system.ruby.L2Cache_Controller.Exclusive_Unblock          877      0.00%      0.00%
system.ruby.L2Cache_Controller.NP.L1_GET_INSTR           38      0.00%      0.00%
system.ruby.L2Cache_Controller.NP.L1_GETS           49      0.00%      0.00%
system.ruby.L2Cache_Controller.NP.L1_GETX          797      0.00%      0.00%
system.ruby.L2Cache_Controller.NP.L1_PUTX_old          309      0.00%      0.00%
system.ruby.L2Cache_Controller.SS.L1_GETX            8      0.00%      0.00%
system.ruby.L2Cache_Controller.SS.L2_Replacement_clean           38      0.00%      0.00%
system.ruby.L2Cache_Controller.M.L1_GET_INSTR            8      0.00%      0.00%
system.ruby.L2Cache_Controller.M.L1_GETS            1      0.00%      0.00%
system.ruby.L2Cache_Controller.M.L1_GETX           24      0.00%      0.00%
system.ruby.L2Cache_Controller.M.L2_Replacement          302      0.00%      0.00%
system.ruby.L2Cache_Controller.M.L2_Replacement_clean           15      0.00%      0.00%
system.ruby.L2Cache_Controller.MT.L1_PUTX          351      0.00%      0.00%
system.ruby.L2Cache_Controller.MT.L2_Replacement_clean          525      0.00%      0.00%
system.ruby.L2Cache_Controller.M_I.L1_GET_INSTR            1      0.00%      0.00%
system.ruby.L2Cache_Controller.M_I.L1_PUTX_old          124      0.00%      0.00%
system.ruby.L2Cache_Controller.M_I.Mem_Ack          878      0.00%      0.00%
system.ruby.L2Cache_Controller.MCT_I.L1_PUTX_old          215      0.00%      0.00%
system.ruby.L2Cache_Controller.MCT_I.WB_Data          493      0.00%      0.00%
system.ruby.L2Cache_Controller.MCT_I.WB_Data_clean           27      0.00%      0.00%
system.ruby.L2Cache_Controller.MCT_I.Ack_all            5      0.00%      0.00%
system.ruby.L2Cache_Controller.I_I.Ack_all           38      0.00%      0.00%
system.ruby.L2Cache_Controller.ISS.L2_Replacement_clean           16      0.00%      0.00%
system.ruby.L2Cache_Controller.ISS.Mem_Data           49      0.00%      0.00%
system.ruby.L2Cache_Controller.IS.L2_Replacement_clean           19      0.00%      0.00%
system.ruby.L2Cache_Controller.IS.Mem_Data           38      0.00%      0.00%
system.ruby.L2Cache_Controller.IM.L2_Replacement_clean          224      0.00%      0.00%
system.ruby.L2Cache_Controller.IM.Mem_Data          797      0.00%      0.00%
system.ruby.L2Cache_Controller.SS_MB.Exclusive_Unblock            8      0.00%      0.00%
system.ruby.L2Cache_Controller.MT_MB.L1_PUTX            7      0.00%      0.00%
system.ruby.L2Cache_Controller.MT_MB.L1_PUTX_old          178      0.00%      0.00%
system.ruby.L2Cache_Controller.MT_MB.L2_Replacement_clean          351      0.00%      0.00%
system.ruby.L2Cache_Controller.MT_MB.Exclusive_Unblock          869      0.00%      0.00%
system.ruby.Directory_Controller.Fetch            884      0.00%      0.00%
system.ruby.Directory_Controller.Data             795      0.00%      0.00%
system.ruby.Directory_Controller.Memory_Data          884      0.00%      0.00%
system.ruby.Directory_Controller.Memory_Ack          795      0.00%      0.00%
system.ruby.Directory_Controller.CleanReplacement           85      0.00%      0.00%
system.ruby.Directory_Controller.I.Fetch          884      0.00%      0.00%
system.ruby.Directory_Controller.M.Data           795      0.00%      0.00%
system.ruby.Directory_Controller.M.CleanReplacement           85      0.00%      0.00%
system.ruby.Directory_Controller.IM.Memory_Data          884      0.00%      0.00%
system.ruby.Directory_Controller.MI.Memory_Ack          795      0.00%      0.00%

---------- End Simulation Statistics   ----------
