
---------- Begin Simulation Statistics ----------
sim_seconds                                  0.000318                       # Number of seconds simulated
sim_ticks                                      318321                       # Number of ticks simulated
final_tick                                     318321                       # Number of ticks from beginning of simulation (restored from checkpoints and never reset)
sim_freq                                   1000000000                       # Frequency of simulated ticks
host_tick_rate                                1986485                       # Simulator tick rate (ticks/s)
host_mem_usage                                 123316                       # Number of bytes of host memory used
host_seconds                                     0.16                       # Real time elapsed on the host
system.ruby.l1_cntrl0.L1Dcache.demand_hits           81                       # Number of cache demand hits
system.ruby.l1_cntrl0.L1Dcache.demand_misses          861                       # Number of cache demand misses
system.ruby.l1_cntrl0.L1Dcache.demand_accesses          942                       # Number of cache demand accesses
system.ruby.l1_cntrl0.L1Icache.demand_hits            0                       # Number of cache demand hits
system.ruby.l1_cntrl0.L1Icache.demand_misses           56                       # Number of cache demand misses
system.ruby.l1_cntrl0.L1Icache.demand_accesses           56                       # Number of cache demand accesses
system.ruby.l1_cntrl0.prefetcher.miss_observed            0                       # number of misses observed
system.ruby.l1_cntrl0.prefetcher.allocated_streams            0                       # number of streams allocated for prefetching
system.ruby.l1_cntrl0.prefetcher.prefetches_requested            0                       # number of prefetch requests made
system.ruby.l1_cntrl0.prefetcher.prefetches_accepted            0                       # number of prefetch requests accepted
system.ruby.l1_cntrl0.prefetcher.dropped_prefetches            0                       # number of prefetch requests dropped
system.ruby.l1_cntrl0.prefetcher.hits               0                       # number of prefetched blocks accessed
system.ruby.l1_cntrl0.prefetcher.partial_hits            0                       # number of misses observed for a block being prefetched
system.ruby.l1_cntrl0.prefetcher.pages_crossed            0                       # number of prefetches across pages
system.ruby.l1_cntrl0.prefetcher.misses_on_prefetched_blocks            0                       # number of misses for blocks that were prefetched, yet missed
system.ruby.network.routers0.percent_links_utilized     1.769362                      
system.ruby.network.routers0.msg_count.Control::0          917                      
system.ruby.network.routers0.msg_count.Request_Control::0          563                      
system.ruby.network.routers0.msg_count.Response_Data::1          915                      
system.ruby.network.routers0.msg_count.Response_Control::1          806                      
system.ruby.network.routers0.msg_count.Response_Control::2          859                      
system.ruby.network.routers0.msg_count.Writeback_Data::0          722                      
system.ruby.network.routers0.msg_count.Writeback_Data::1          513                      
system.ruby.network.routers0.msg_count.Writeback_Control::0           34                      
system.ruby.network.routers0.msg_bytes.Control::0         7336                      
system.ruby.network.routers0.msg_bytes.Request_Control::0         4504                      
system.ruby.network.routers0.msg_bytes.Response_Data::1        65880                      
system.ruby.network.routers0.msg_bytes.Response_Control::1         6448                      
system.ruby.network.routers0.msg_bytes.Response_Control::2         6872                      
system.ruby.network.routers0.msg_bytes.Writeback_Data::0        51984                      
system.ruby.network.routers0.msg_bytes.Writeback_Data::1        36936                      
system.ruby.network.routers0.msg_bytes.Writeback_Control::0          272                      
system.ruby.l2_cntrl0.L2cache.demand_hits           43                       # Number of cache demand hits
system.ruby.l2_cntrl0.L2cache.demand_misses          874                       # Number of cache demand misses
system.ruby.l2_cntrl0.L2cache.demand_accesses          917                       # Number of cache demand accesses
system.ruby.network.routers1.percent_links_utilized     3.085407                      
system.ruby.network.routers1.msg_count.Control::0         1791                      
system.ruby.network.routers1.msg_count.Request_Control::0          563                      
system.ruby.network.routers1.msg_count.Response_Data::1         2574                      
system.ruby.network.routers1.msg_count.Response_Control::1         1759                      
system.ruby.network.routers1.msg_count.Response_Control::2          858                      
system.ruby.network.routers1.msg_count.Writeback_Data::0          722                      
system.ruby.network.routers1.msg_count.Writeback_Data::1          513                      
system.ruby.network.routers1.msg_count.Writeback_Control::0           34                      
system.ruby.network.routers1.msg_bytes.Control::0        14328                      
system.ruby.network.routers1.msg_bytes.Request_Control::0         4504                      
system.ruby.network.routers1.msg_bytes.Response_Data::1       185328                      
system.ruby.network.routers1.msg_bytes.Response_Control::1        14072                      
system.ruby.network.routers1.msg_bytes.Response_Control::2         6864                      
system.ruby.network.routers1.msg_bytes.Writeback_Data::0        51984                      
system.ruby.network.routers1.msg_bytes.Writeback_Data::1        36936                      
system.ruby.network.routers1.msg_bytes.Writeback_Control::0          272                      
system.ruby.dir_cntrl0.memBuffer.memReq          1660                       # Total number of memory requests
system.ruby.dir_cntrl0.memBuffer.memRead          874                       # Number of memory reads
system.ruby.dir_cntrl0.memBuffer.memWrite          786                       # Number of memory writes
system.ruby.dir_cntrl0.memBuffer.memRefresh         2210                       # Number of memory refreshes
system.ruby.dir_cntrl0.memBuffer.memWaitCycles          555                       # Delay stalled at the head of the bank queue
system.ruby.dir_cntrl0.memBuffer.memInputQ           44                       # Delay in the input queue
system.ruby.dir_cntrl0.memBuffer.memBankQ            2                       # Delay behind the head of the bank queue
system.ruby.dir_cntrl0.memBuffer.totalStalls          601                       # Total number of stall cycles
system.ruby.dir_cntrl0.memBuffer.stallsPerReq     0.362048                       # Expected number of stall cycles per request
system.ruby.dir_cntrl0.memBuffer.memBankBusy          169                       # memory stalls due to busy bank
system.ruby.dir_cntrl0.memBuffer.memBusBusy          188                       # memory stalls due to busy bus
system.ruby.dir_cntrl0.memBuffer.memReadWriteBusy          104                       # memory stalls due to read write turnaround
system.ruby.dir_cntrl0.memBuffer.memDataBusBusy           64                       # memory stalls due to read read turnaround
system.ruby.dir_cntrl0.memBuffer.memArbWait           30                       # memory stalls due to arbitration
system.ruby.dir_cntrl0.memBuffer.memBankCount |          42      2.53%      2.53% |          51      3.07%      5.60% |          50      3.01%      8.61% |          73      4.40%     13.01% |          73      4.40%     17.41% |          71      4.28%     21.69% |          65      3.92%     25.60% |          49      2.95%     28.55% |          54      3.25%     31.81% |          41      2.47%     34.28% |          50      3.01%     37.29% |          44      2.65%     39.94% |          58      3.49%     43.43% |          48      2.89%     46.33% |          47      2.83%     49.16% |          63      3.80%     52.95% |          57      3.43%     56.39% |          47      2.83%     59.22% |          58      3.49%     62.71% |          57      3.43%     66.14% |          41      2.47%     68.61% |          49      2.95%     71.57% |          46      2.77%     74.34% |          49      2.95%     77.29% |          57      3.43%     80.72% |          45      2.71%     83.43% |          42      2.53%     85.96% |          49      2.95%     88.92% |          45      2.71%     91.63% |          53      3.19%     94.82% |          48      2.89%     97.71% |          38      2.29%    100.00% # Number of accesses per bank
system.ruby.dir_cntrl0.memBuffer.memBankCount::total         1660                       # Number of accesses per bank

system.ruby.network.routers2.percent_links_utilized     1.316910                      
system.ruby.network.routers2.msg_count.Control::0          874                      
system.ruby.network.routers2.msg_count.Response_Data::1         1660                      
system.ruby.network.routers2.msg_count.Response_Control::1          954                      
system.ruby.network.routers2.msg_bytes.Control::0         6992                      
system.ruby.network.routers2.msg_bytes.Response_Data::1       119520                      
system.ruby.network.routers2.msg_bytes.Response_Control::1         7632                      
system.ruby.network.routers3.percent_links_utilized     2.057462                      
system.ruby.network.routers3.msg_count.Control::0         1791                      
system.ruby.network.routers3.msg_count.Request_Control::0          563                      
system.ruby.network.routers3.msg_count.Response_Data::1         2575                      
system.ruby.network.routers3.msg_count.Response_Control::1         1760                      
system.ruby.network.routers3.msg_count.Response_Control::2          858                      
system.ruby.network.routers3.msg_count.Writeback_Data::0          722                      
system.ruby.network.routers3.msg_count.Writeback_Data::1          513                      
system.ruby.network.routers3.msg_count.Writeback_Control::0           34                      
system.ruby.network.routers3.msg_bytes.Control::0        14328                      
system.ruby.network.routers3.msg_bytes.Request_Control::0         4504                      
system.ruby.network.routers3.msg_bytes.Response_Data::1       185400                      
system.ruby.network.routers3.msg_bytes.Response_Control::1        14080                      
system.ruby.network.routers3.msg_bytes.Response_Control::2         6864                      
system.ruby.network.routers3.msg_bytes.Writeback_Data::0        51984                      
system.ruby.network.routers3.msg_bytes.Writeback_Data::1        36936                      
system.ruby.network.routers3.msg_bytes.Writeback_Control::0          272                      
system.ruby.network.msg_count.Control            5373                      
system.ruby.network.msg_count.Request_Control         1689                      
system.ruby.network.msg_count.Response_Data         7724                      
system.ruby.network.msg_count.Response_Control         7854                      
system.ruby.network.msg_count.Writeback_Data         3705                      
system.ruby.network.msg_count.Writeback_Control          102                      
system.ruby.network.msg_byte.Control            42984                      
system.ruby.network.msg_byte.Request_Control        13512                      
system.ruby.network.msg_byte.Response_Data       556128                      
system.ruby.network.msg_byte.Response_Control        62832                      
system.ruby.network.msg_byte.Writeback_Data       266760                      
system.ruby.network.msg_byte.Writeback_Control          816                      
system.ruby.network.routers0.throttle0.link_utilization     1.500686                      
system.ruby.network.routers0.throttle0.msg_count.Request_Control::0          563                      
system.ruby.network.routers0.throttle0.msg_count.Response_Data::1          915                      
system.ruby.network.routers0.throttle0.msg_count.Response_Control::1          756                      
system.ruby.network.routers0.throttle0.msg_bytes.Request_Control::0         4504                      
system.ruby.network.routers0.throttle0.msg_bytes.Response_Data::1        65880                      
system.ruby.network.routers0.throttle0.msg_bytes.Response_Control::1         6048                      
system.ruby.network.routers0.throttle1.link_utilization     2.038037                      
system.ruby.network.routers0.throttle1.msg_count.Control::0          917                      
system.ruby.network.routers0.throttle1.msg_count.Response_Control::1           50                      
system.ruby.network.routers0.throttle1.msg_count.Response_Control::2          859                      
system.ruby.network.routers0.throttle1.msg_count.Writeback_Data::0          722                      
system.ruby.network.routers0.throttle1.msg_count.Writeback_Data::1          513                      
system.ruby.network.routers0.throttle1.msg_count.Writeback_Control::0           34                      
system.ruby.network.routers0.throttle1.msg_bytes.Control::0         7336                      
system.ruby.network.routers0.throttle1.msg_bytes.Response_Control::1          400                      
system.ruby.network.routers0.throttle1.msg_bytes.Response_Control::2         6872                      
system.ruby.network.routers0.throttle1.msg_bytes.Writeback_Data::0        51984                      
system.ruby.network.routers0.throttle1.msg_bytes.Writeback_Data::1        36936                      
system.ruby.network.routers0.throttle1.msg_bytes.Writeback_Control::0          272                      
system.ruby.network.routers1.throttle0.link_utilization     3.408509                      
system.ruby.network.routers1.throttle0.msg_count.Control::0          917                      
system.ruby.network.routers1.throttle0.msg_count.Response_Data::1          873                      
system.ruby.network.routers1.throttle0.msg_count.Response_Control::1          919                      
system.ruby.network.routers1.throttle0.msg_count.Response_Control::2          858                      
system.ruby.network.routers1.throttle0.msg_count.Writeback_Data::0          722                      
system.ruby.network.routers1.throttle0.msg_count.Writeback_Data::1          513                      
system.ruby.network.routers1.throttle0.msg_count.Writeback_Control::0           34                      
system.ruby.network.routers1.throttle0.msg_bytes.Control::0         7336                      
system.ruby.network.routers1.throttle0.msg_bytes.Response_Data::1        62856                      
system.ruby.network.routers1.throttle0.msg_bytes.Response_Control::1         7352                      
system.ruby.network.routers1.throttle0.msg_bytes.Response_Control::2         6864                      
system.ruby.network.routers1.throttle0.msg_bytes.Writeback_Data::0        51984                      
system.ruby.network.routers1.throttle0.msg_bytes.Writeback_Data::1        36936                      
system.ruby.network.routers1.throttle0.msg_bytes.Writeback_Control::0          272                      
system.ruby.network.routers1.throttle1.link_utilization     2.762306                      
system.ruby.network.routers1.throttle1.msg_count.Control::0          874                      
system.ruby.network.routers1.throttle1.msg_count.Request_Control::0          563                      
system.ruby.network.routers1.throttle1.msg_count.Response_Data::1         1701                      
system.ruby.network.routers1.throttle1.msg_count.Response_Control::1          840                      
system.ruby.network.routers1.throttle1.msg_bytes.Control::0         6992                      
system.ruby.network.routers1.throttle1.msg_bytes.Request_Control::0         4504                      
system.ruby.network.routers1.throttle1.msg_bytes.Response_Data::1       122472                      
system.ruby.network.routers1.throttle1.msg_bytes.Response_Control::1         6720                      
system.ruby.network.routers2.throttle0.link_utilization     1.261620                      
system.ruby.network.routers2.throttle0.msg_count.Control::0          874                      
system.ruby.network.routers2.throttle0.msg_count.Response_Data::1          786                      
system.ruby.network.routers2.throttle0.msg_count.Response_Control::1           84                      
system.ruby.network.routers2.throttle0.msg_bytes.Control::0         6992                      
system.ruby.network.routers2.throttle0.msg_bytes.Response_Data::1        56592                      
system.ruby.network.routers2.throttle0.msg_bytes.Response_Control::1          672                      
system.ruby.network.routers2.throttle1.link_utilization     1.372200                      
system.ruby.network.routers2.throttle1.msg_count.Response_Data::1          874                      
system.ruby.network.routers2.throttle1.msg_count.Response_Control::1          870                      
system.ruby.network.routers2.throttle1.msg_bytes.Response_Data::1        62928                      
system.ruby.network.routers2.throttle1.msg_bytes.Response_Control::1         6960                      
system.ruby.network.routers3.throttle0.link_utilization     1.500686                      
system.ruby.network.routers3.throttle0.msg_count.Request_Control::0          563                      
system.ruby.network.routers3.throttle0.msg_count.Response_Data::1          915                      
system.ruby.network.routers3.throttle0.msg_count.Response_Control::1          756                      
system.ruby.network.routers3.throttle0.msg_bytes.Request_Control::0         4504                      
system.ruby.network.routers3.throttle0.msg_bytes.Response_Data::1        65880                      
system.ruby.network.routers3.throttle0.msg_bytes.Response_Control::1         6048                      
system.ruby.network.routers3.throttle1.link_utilization     3.410080                      
system.ruby.network.routers3.throttle1.msg_count.Control::0          917                      
system.ruby.network.routers3.throttle1.msg_count.Response_Data::1          874                      
system.ruby.network.routers3.throttle1.msg_count.Response_Control::1          920                      
system.ruby.network.routers3.throttle1.msg_count.Response_Control::2          858                      
system.ruby.network.routers3.throttle1.msg_count.Writeback_Data::0          722                      
system.ruby.network.routers3.throttle1.msg_count.Writeback_Data::1          513                      
system.ruby.network.routers3.throttle1.msg_count.Writeback_Control::0           34                      
system.ruby.network.routers3.throttle1.msg_bytes.Control::0         7336                      
system.ruby.network.routers3.throttle1.msg_bytes.Response_Data::1        62928                      
system.ruby.network.routers3.throttle1.msg_bytes.Response_Control::1         7360                      
system.ruby.network.routers3.throttle1.msg_bytes.Response_Control::2         6864                      
system.ruby.network.routers3.throttle1.msg_bytes.Writeback_Data::0        51984                      
system.ruby.network.routers3.throttle1.msg_bytes.Writeback_Data::1        36936                      
system.ruby.network.routers3.throttle1.msg_bytes.Writeback_Control::0          272                      
system.ruby.network.routers3.throttle2.link_utilization     1.261620                      
system.ruby.network.routers3.throttle2.msg_count.Control::0          874                      
system.ruby.network.routers3.throttle2.msg_count.Response_Data::1          786                      
system.ruby.network.routers3.throttle2.msg_count.Response_Control::1           84                      
system.ruby.network.routers3.throttle2.msg_bytes.Control::0         6992                      
system.ruby.network.routers3.throttle2.msg_bytes.Response_Data::1        56592                      
system.ruby.network.routers3.throttle2.msg_bytes.Response_Control::1          672                      
system.ruby.l1_cntrl0.Load                         44      0.00%      0.00%
system.ruby.l1_cntrl0.Ifetch                       67      0.00%      0.00%
system.ruby.l1_cntrl0.Store                       898      0.00%      0.00%
system.ruby.l1_cntrl0.Inv                         563      0.00%      0.00%
system.ruby.l1_cntrl0.L1_Replacement            10398      0.00%      0.00%
system.ruby.l1_cntrl0.Data_Exclusive               41      0.00%      0.00%
system.ruby.l1_cntrl0.Data_all_Acks               874      0.00%      0.00%
system.ruby.l1_cntrl0.Ack_all                       1      0.00%      0.00%
system.ruby.l1_cntrl0.WB_Ack                      755      0.00%      0.00%
system.ruby.l1_cntrl0.NP.Load                      42      0.00%      0.00%
system.ruby.l1_cntrl0.NP.Ifetch                    56      0.00%      0.00%
system.ruby.l1_cntrl0.NP.Store                    818      0.00%      0.00%
system.ruby.l1_cntrl0.NP.Inv                        1      0.00%      0.00%
system.ruby.l1_cntrl0.I.L1_Replacement            145      0.00%      0.00%
system.ruby.l1_cntrl0.S.Store                       1      0.00%      0.00%
system.ruby.l1_cntrl0.S.Inv                        31      0.00%      0.00%
system.ruby.l1_cntrl0.S.L1_Replacement             11      0.00%      0.00%
system.ruby.l1_cntrl0.E.Store                       2      0.00%      0.00%
system.ruby.l1_cntrl0.E.Inv                         4      0.00%      0.00%
system.ruby.l1_cntrl0.E.L1_Replacement             34      0.00%      0.00%
system.ruby.l1_cntrl0.M.Load                        2      0.00%      0.00%
system.ruby.l1_cntrl0.M.Store                      77      0.00%      0.00%
system.ruby.l1_cntrl0.M.Inv                        97      0.00%      0.00%
system.ruby.l1_cntrl0.M.L1_Replacement            722      0.00%      0.00%
system.ruby.l1_cntrl0.IS.Inv                       14      0.00%      0.00%
system.ruby.l1_cntrl0.IS.L1_Replacement           374      0.00%      0.00%
system.ruby.l1_cntrl0.IS.Data_Exclusive            41      0.00%      0.00%
system.ruby.l1_cntrl0.IS.Data_all_Acks             43      0.00%      0.00%
system.ruby.l1_cntrl0.IM.L1_Replacement          9112      0.00%      0.00%
system.ruby.l1_cntrl0.IM.Data_all_Acks            817      0.00%      0.00%
system.ruby.l1_cntrl0.SM.Ack_all                    1      0.00%      0.00%
system.ruby.l1_cntrl0.IS_I.Data_all_Acks           14      0.00%      0.00%
system.ruby.l1_cntrl0.M_I.Ifetch                   10      0.00%      0.00%
system.ruby.l1_cntrl0.M_I.Inv                     416      0.00%      0.00%
system.ruby.l1_cntrl0.M_I.WB_Ack                  340      0.00%      0.00%
system.ruby.l1_cntrl0.SINK_WB_ACK.Ifetch            1      0.00%      0.00%
system.ruby.l1_cntrl0.SINK_WB_ACK.WB_Ack          415      0.00%      0.00%
system.ruby.l2_cntrl0.L1_GET_INSTR                 56      0.00%      0.00%
system.ruby.l2_cntrl0.L1_GETS                      42      0.00%      0.00%
system.ruby.l2_cntrl0.L1_GETX                     818      0.00%      0.00%
system.ruby.l2_cntrl0.L1_UPGRADE                    1      0.00%      0.00%
system.ruby.l2_cntrl0.L1_PUTX                     345      0.00%      0.00%
system.ruby.l2_cntrl0.L1_PUTX_old                 796      0.00%      0.00%
system.ruby.l2_cntrl0.L2_Replacement              291      0.00%      0.00%
system.ruby.l2_cntrl0.L2_Replacement_clean         1216      0.00%      0.00%
system.ruby.l2_cntrl0.Mem_Data                    873      0.00%      0.00%
system.ruby.l2_cntrl0.Mem_Ack                     869      0.00%      0.00%
system.ruby.l2_cntrl0.WB_Data                     495      0.00%      0.00%
system.ruby.l2_cntrl0.WB_Data_clean                18      0.00%      0.00%
system.ruby.l2_cntrl0.Ack_all                      50      0.00%      0.00%
system.ruby.l2_cntrl0.Exclusive_Unblock           858      0.00%      0.00%
system.ruby.l2_cntrl0.NP.L1_GET_INSTR              46      0.00%      0.00%
system.ruby.l2_cntrl0.NP.L1_GETS                   41      0.00%      0.00%
system.ruby.l2_cntrl0.NP.L1_GETX                  787      0.00%      0.00%
system.ruby.l2_cntrl0.NP.L1_PUTX_old              302      0.00%      0.00%
system.ruby.l2_cntrl0.SS.L1_GETS                    1      0.00%      0.00%
system.ruby.l2_cntrl0.SS.L1_GETX                    9      0.00%      0.00%
system.ruby.l2_cntrl0.SS.L1_UPGRADE                 1      0.00%      0.00%
system.ruby.l2_cntrl0.SS.L2_Replacement_clean           46      0.00%      0.00%
system.ruby.l2_cntrl0.M.L1_GET_INSTR               10      0.00%      0.00%
system.ruby.l2_cntrl0.M.L1_GETX                    22      0.00%      0.00%
system.ruby.l2_cntrl0.M.L2_Replacement            291      0.00%      0.00%
system.ruby.l2_cntrl0.M.L2_Replacement_clean           16      0.00%      0.00%
system.ruby.l2_cntrl0.MT.L1_PUTX                  340      0.00%      0.00%
system.ruby.l2_cntrl0.MT.L2_Replacement_clean          517      0.00%      0.00%
system.ruby.l2_cntrl0.M_I.L1_PUTX_old             113      0.00%      0.00%
system.ruby.l2_cntrl0.M_I.Mem_Ack                 869      0.00%      0.00%
system.ruby.l2_cntrl0.MCT_I.L1_PUTX_old           210      0.00%      0.00%
system.ruby.l2_cntrl0.MCT_I.WB_Data               495      0.00%      0.00%
system.ruby.l2_cntrl0.MCT_I.WB_Data_clean           18      0.00%      0.00%
system.ruby.l2_cntrl0.MCT_I.Ack_all                 4      0.00%      0.00%
system.ruby.l2_cntrl0.I_I.Ack_all                  46      0.00%      0.00%
system.ruby.l2_cntrl0.ISS.L2_Replacement_clean           11      0.00%      0.00%
system.ruby.l2_cntrl0.ISS.Mem_Data                 41      0.00%      0.00%
system.ruby.l2_cntrl0.IS.L2_Replacement_clean           57      0.00%      0.00%
system.ruby.l2_cntrl0.IS.Mem_Data                  46      0.00%      0.00%
system.ruby.l2_cntrl0.IM.L2_Replacement_clean          219      0.00%      0.00%
system.ruby.l2_cntrl0.IM.Mem_Data                 786      0.00%      0.00%
system.ruby.l2_cntrl0.SS_MB.Exclusive_Unblock           10      0.00%      0.00%
system.ruby.l2_cntrl0.MT_MB.L1_PUTX                 5      0.00%      0.00%
system.ruby.l2_cntrl0.MT_MB.L1_PUTX_old           171      0.00%      0.00%
system.ruby.l2_cntrl0.MT_MB.L2_Replacement_clean          350      0.00%      0.00%
system.ruby.l2_cntrl0.MT_MB.Exclusive_Unblock          848      0.00%      0.00%
system.ruby.dir_cntrl0.Fetch                      874      0.00%      0.00%
system.ruby.dir_cntrl0.Data                       786      0.00%      0.00%
system.ruby.dir_cntrl0.Memory_Data                874      0.00%      0.00%
system.ruby.dir_cntrl0.Memory_Ack                 786      0.00%      0.00%
system.ruby.dir_cntrl0.CleanReplacement            84      0.00%      0.00%
system.ruby.dir_cntrl0.I.Fetch                    874      0.00%      0.00%
system.ruby.dir_cntrl0.M.Data                     786      0.00%      0.00%
system.ruby.dir_cntrl0.M.CleanReplacement           84      0.00%      0.00%
system.ruby.dir_cntrl0.IM.Memory_Data             874      0.00%      0.00%
system.ruby.dir_cntrl0.MI.Memory_Ack              786      0.00%      0.00%

---------- End Simulation Statistics   ----------
