
---------- Begin Simulation Statistics ----------
sim_seconds                                  0.000314                       # Number of seconds simulated
sim_ticks                                   314399500                       # Number of ticks simulated
final_tick                                  314399500                       # Number of ticks from beginning of simulation (restored from checkpoints and never reset)
sim_freq                                 1000000000000                       # Frequency of simulated ticks
host_inst_rate                                  59851                       # Simulator instruction rate (inst/s)
host_op_rate                                   123077                       # Simulator op (including micro ops) rate (op/s)
host_tick_rate                              280996968                       # Simulator tick rate (ticks/s)
host_mem_usage                                1296852                       # Number of bytes of host memory used
host_seconds                                     1.12                       # Real time elapsed on the host
sim_insts                                       66963                       # Number of instructions simulated
sim_ops                                        137705                       # Number of ops (including micro ops) simulated
system.voltage_domain.voltage                       1                       # Voltage in Volts
system.clk_domain.clock                          1000                       # Clock period in ticks
system.mem_ctrls.bytes_read::ruby.dir_cntrl0        99840                       # Number of bytes read from this memory
system.mem_ctrls.bytes_read::total              99840                       # Number of bytes read from this memory
system.mem_ctrls.num_reads::ruby.dir_cntrl0         1560                       # Number of read requests responded to by this memory
system.mem_ctrls.num_reads::total                1560                       # Number of read requests responded to by this memory
system.mem_ctrls.bw_read::ruby.dir_cntrl0    317557757                       # Total read bandwidth from this memory (bytes/s)
system.mem_ctrls.bw_read::total             317557757                       # Total read bandwidth from this memory (bytes/s)
system.mem_ctrls.bw_total::ruby.dir_cntrl0    317557757                       # Total bandwidth to/from this memory (bytes/s)
system.mem_ctrls.bw_total::total            317557757                       # Total bandwidth to/from this memory (bytes/s)
system.mem_ctrls.readReqs                        1560                       # Number of read requests accepted
system.mem_ctrls.writeReqs                          0                       # Number of write requests accepted
system.mem_ctrls.readBursts                      1560                       # Number of DRAM read bursts, including those serviced by the write queue
system.mem_ctrls.writeBursts                        0                       # Number of DRAM write bursts, including those merged in the write queue
system.mem_ctrls.bytesReadDRAM                  99840                       # Total number of bytes read from DRAM
system.mem_ctrls.bytesReadWrQ                       0                       # Total number of bytes read from write queue
system.mem_ctrls.bytesWritten                       0                       # Total number of bytes written to DRAM
system.mem_ctrls.bytesReadSys                   99840                       # Total read bytes from the system interface side
system.mem_ctrls.bytesWrittenSys                    0                       # Total written bytes from the system interface side
system.mem_ctrls.servicedByWrQ                      0                       # Number of DRAM read bursts serviced by the write queue
system.mem_ctrls.mergedWrBursts                     0                       # Number of DRAM write bursts merged with an existing one
system.mem_ctrls.neitherReadNorWriteReqs            0                       # Number of requests that are neither read nor write
system.mem_ctrls.perBankRdBursts::0               122                       # Per bank write bursts
system.mem_ctrls.perBankRdBursts::1               192                       # Per bank write bursts
system.mem_ctrls.perBankRdBursts::2                93                       # Per bank write bursts
system.mem_ctrls.perBankRdBursts::3                44                       # Per bank write bursts
system.mem_ctrls.perBankRdBursts::4                61                       # Per bank write bursts
system.mem_ctrls.perBankRdBursts::5                79                       # Per bank write bursts
system.mem_ctrls.perBankRdBursts::6                52                       # Per bank write bursts
system.mem_ctrls.perBankRdBursts::7                42                       # Per bank write bursts
system.mem_ctrls.perBankRdBursts::8                54                       # Per bank write bursts
system.mem_ctrls.perBankRdBursts::9                56                       # Per bank write bursts
system.mem_ctrls.perBankRdBursts::10              182                       # Per bank write bursts
system.mem_ctrls.perBankRdBursts::11               90                       # Per bank write bursts
system.mem_ctrls.perBankRdBursts::12              223                       # Per bank write bursts
system.mem_ctrls.perBankRdBursts::13              125                       # Per bank write bursts
system.mem_ctrls.perBankRdBursts::14               51                       # Per bank write bursts
system.mem_ctrls.perBankRdBursts::15               94                       # Per bank write bursts
system.mem_ctrls.perBankWrBursts::0                 0                       # Per bank write bursts
system.mem_ctrls.perBankWrBursts::1                 0                       # Per bank write bursts
system.mem_ctrls.perBankWrBursts::2                 0                       # Per bank write bursts
system.mem_ctrls.perBankWrBursts::3                 0                       # Per bank write bursts
system.mem_ctrls.perBankWrBursts::4                 0                       # Per bank write bursts
system.mem_ctrls.perBankWrBursts::5                 0                       # Per bank write bursts
system.mem_ctrls.perBankWrBursts::6                 0                       # Per bank write bursts
system.mem_ctrls.perBankWrBursts::7                 0                       # Per bank write bursts
system.mem_ctrls.perBankWrBursts::8                 0                       # Per bank write bursts
system.mem_ctrls.perBankWrBursts::9                 0                       # Per bank write bursts
system.mem_ctrls.perBankWrBursts::10                0                       # Per bank write bursts
system.mem_ctrls.perBankWrBursts::11                0                       # Per bank write bursts
system.mem_ctrls.perBankWrBursts::12                0                       # Per bank write bursts
system.mem_ctrls.perBankWrBursts::13                0                       # Per bank write bursts
system.mem_ctrls.perBankWrBursts::14                0                       # Per bank write bursts
system.mem_ctrls.perBankWrBursts::15                0                       # Per bank write bursts
system.mem_ctrls.numRdRetry                         0                       # Number of times read queue was full causing retry
system.mem_ctrls.numWrRetry                         0                       # Number of times write queue was full causing retry
system.mem_ctrls.totGap                     314257000                       # Total gap between requests
system.mem_ctrls.readPktSize::0                     0                       # Read request sizes (log2)
system.mem_ctrls.readPktSize::1                     0                       # Read request sizes (log2)
system.mem_ctrls.readPktSize::2                     0                       # Read request sizes (log2)
system.mem_ctrls.readPktSize::3                     0                       # Read request sizes (log2)
system.mem_ctrls.readPktSize::4                     0                       # Read request sizes (log2)
system.mem_ctrls.readPktSize::5                     0                       # Read request sizes (log2)
system.mem_ctrls.readPktSize::6                  1560                       # Read request sizes (log2)
system.mem_ctrls.writePktSize::0                    0                       # Write request sizes (log2)
system.mem_ctrls.writePktSize::1                    0                       # Write request sizes (log2)
system.mem_ctrls.writePktSize::2                    0                       # Write request sizes (log2)
system.mem_ctrls.writePktSize::3                    0                       # Write request sizes (log2)
system.mem_ctrls.writePktSize::4                    0                       # Write request sizes (log2)
system.mem_ctrls.writePktSize::5                    0                       # Write request sizes (log2)
system.mem_ctrls.writePktSize::6                    0                       # Write request sizes (log2)
system.mem_ctrls.rdQLenPdf::0                    1544                       # What read queue length does an incoming req see
system.mem_ctrls.rdQLenPdf::1                       3                       # What read queue length does an incoming req see
system.mem_ctrls.rdQLenPdf::2                       2                       # What read queue length does an incoming req see
system.mem_ctrls.rdQLenPdf::3                       2                       # What read queue length does an incoming req see
system.mem_ctrls.rdQLenPdf::4                       4                       # What read queue length does an incoming req see
system.mem_ctrls.rdQLenPdf::5                       3                       # What read queue length does an incoming req see
system.mem_ctrls.rdQLenPdf::6                       1                       # What read queue length does an incoming req see
system.mem_ctrls.rdQLenPdf::7                       1                       # What read queue length does an incoming req see
system.mem_ctrls.rdQLenPdf::8                       0                       # What read queue length does an incoming req see
system.mem_ctrls.rdQLenPdf::9                       0                       # What read queue length does an incoming req see
system.mem_ctrls.rdQLenPdf::10                      0                       # What read queue length does an incoming req see
system.mem_ctrls.rdQLenPdf::11                      0                       # What read queue length does an incoming req see
system.mem_ctrls.rdQLenPdf::12                      0                       # What read queue length does an incoming req see
system.mem_ctrls.rdQLenPdf::13                      0                       # What read queue length does an incoming req see
system.mem_ctrls.rdQLenPdf::14                      0                       # What read queue length does an incoming req see
system.mem_ctrls.rdQLenPdf::15                      0                       # What read queue length does an incoming req see
system.mem_ctrls.rdQLenPdf::16                      0                       # What read queue length does an incoming req see
system.mem_ctrls.rdQLenPdf::17                      0                       # What read queue length does an incoming req see
system.mem_ctrls.rdQLenPdf::18                      0                       # What read queue length does an incoming req see
system.mem_ctrls.rdQLenPdf::19                      0                       # What read queue length does an incoming req see
system.mem_ctrls.rdQLenPdf::20                      0                       # What read queue length does an incoming req see
system.mem_ctrls.rdQLenPdf::21                      0                       # What read queue length does an incoming req see
system.mem_ctrls.rdQLenPdf::22                      0                       # What read queue length does an incoming req see
system.mem_ctrls.rdQLenPdf::23                      0                       # What read queue length does an incoming req see
system.mem_ctrls.rdQLenPdf::24                      0                       # What read queue length does an incoming req see
system.mem_ctrls.rdQLenPdf::25                      0                       # What read queue length does an incoming req see
system.mem_ctrls.rdQLenPdf::26                      0                       # What read queue length does an incoming req see
system.mem_ctrls.rdQLenPdf::27                      0                       # What read queue length does an incoming req see
system.mem_ctrls.rdQLenPdf::28                      0                       # What read queue length does an incoming req see
system.mem_ctrls.rdQLenPdf::29                      0                       # What read queue length does an incoming req see
system.mem_ctrls.rdQLenPdf::30                      0                       # What read queue length does an incoming req see
system.mem_ctrls.rdQLenPdf::31                      0                       # What read queue length does an incoming req see
system.mem_ctrls.wrQLenPdf::0                       0                       # What write queue length does an incoming req see
system.mem_ctrls.wrQLenPdf::1                       0                       # What write queue length does an incoming req see
system.mem_ctrls.wrQLenPdf::2                       0                       # What write queue length does an incoming req see
system.mem_ctrls.wrQLenPdf::3                       0                       # What write queue length does an incoming req see
system.mem_ctrls.wrQLenPdf::4                       0                       # What write queue length does an incoming req see
system.mem_ctrls.wrQLenPdf::5                       0                       # What write queue length does an incoming req see
system.mem_ctrls.wrQLenPdf::6                       0                       # What write queue length does an incoming req see
system.mem_ctrls.wrQLenPdf::7                       0                       # What write queue length does an incoming req see
system.mem_ctrls.wrQLenPdf::8                       0                       # What write queue length does an incoming req see
system.mem_ctrls.wrQLenPdf::9                       0                       # What write queue length does an incoming req see
system.mem_ctrls.wrQLenPdf::10                      0                       # What write queue length does an incoming req see
system.mem_ctrls.wrQLenPdf::11                      0                       # What write queue length does an incoming req see
system.mem_ctrls.wrQLenPdf::12                      0                       # What write queue length does an incoming req see
system.mem_ctrls.wrQLenPdf::13                      0                       # What write queue length does an incoming req see
system.mem_ctrls.wrQLenPdf::14                      0                       # What write queue length does an incoming req see
system.mem_ctrls.wrQLenPdf::15                      0                       # What write queue length does an incoming req see
system.mem_ctrls.wrQLenPdf::16                      0                       # What write queue length does an incoming req see
system.mem_ctrls.wrQLenPdf::17                      0                       # What write queue length does an incoming req see
system.mem_ctrls.wrQLenPdf::18                      0                       # What write queue length does an incoming req see
system.mem_ctrls.wrQLenPdf::19                      0                       # What write queue length does an incoming req see
system.mem_ctrls.wrQLenPdf::20                      0                       # What write queue length does an incoming req see
system.mem_ctrls.wrQLenPdf::21                      0                       # What write queue length does an incoming req see
system.mem_ctrls.wrQLenPdf::22                      0                       # What write queue length does an incoming req see
system.mem_ctrls.wrQLenPdf::23                      0                       # What write queue length does an incoming req see
system.mem_ctrls.wrQLenPdf::24                      0                       # What write queue length does an incoming req see
system.mem_ctrls.wrQLenPdf::25                      0                       # What write queue length does an incoming req see
system.mem_ctrls.wrQLenPdf::26                      0                       # What write queue length does an incoming req see
system.mem_ctrls.wrQLenPdf::27                      0                       # What write queue length does an incoming req see
system.mem_ctrls.wrQLenPdf::28                      0                       # What write queue length does an incoming req see
system.mem_ctrls.wrQLenPdf::29                      0                       # What write queue length does an incoming req see
system.mem_ctrls.wrQLenPdf::30                      0                       # What write queue length does an incoming req see
system.mem_ctrls.wrQLenPdf::31                      0                       # What write queue length does an incoming req see
system.mem_ctrls.wrQLenPdf::32                      0                       # What write queue length does an incoming req see
system.mem_ctrls.wrQLenPdf::33                      0                       # What write queue length does an incoming req see
system.mem_ctrls.wrQLenPdf::34                      0                       # What write queue length does an incoming req see
system.mem_ctrls.wrQLenPdf::35                      0                       # What write queue length does an incoming req see
system.mem_ctrls.wrQLenPdf::36                      0                       # What write queue length does an incoming req see
system.mem_ctrls.wrQLenPdf::37                      0                       # What write queue length does an incoming req see
system.mem_ctrls.wrQLenPdf::38                      0                       # What write queue length does an incoming req see
system.mem_ctrls.wrQLenPdf::39                      0                       # What write queue length does an incoming req see
system.mem_ctrls.wrQLenPdf::40                      0                       # What write queue length does an incoming req see
system.mem_ctrls.wrQLenPdf::41                      0                       # What write queue length does an incoming req see
system.mem_ctrls.wrQLenPdf::42                      0                       # What write queue length does an incoming req see
system.mem_ctrls.wrQLenPdf::43                      0                       # What write queue length does an incoming req see
system.mem_ctrls.wrQLenPdf::44                      0                       # What write queue length does an incoming req see
system.mem_ctrls.wrQLenPdf::45                      0                       # What write queue length does an incoming req see
system.mem_ctrls.wrQLenPdf::46                      0                       # What write queue length does an incoming req see
system.mem_ctrls.wrQLenPdf::47                      0                       # What write queue length does an incoming req see
system.mem_ctrls.wrQLenPdf::48                      0                       # What write queue length does an incoming req see
system.mem_ctrls.wrQLenPdf::49                      0                       # What write queue length does an incoming req see
system.mem_ctrls.wrQLenPdf::50                      0                       # What write queue length does an incoming req see
system.mem_ctrls.wrQLenPdf::51                      0                       # What write queue length does an incoming req see
system.mem_ctrls.wrQLenPdf::52                      0                       # What write queue length does an incoming req see
system.mem_ctrls.wrQLenPdf::53                      0                       # What write queue length does an incoming req see
system.mem_ctrls.wrQLenPdf::54                      0                       # What write queue length does an incoming req see
system.mem_ctrls.wrQLenPdf::55                      0                       # What write queue length does an incoming req see
system.mem_ctrls.wrQLenPdf::56                      0                       # What write queue length does an incoming req see
system.mem_ctrls.wrQLenPdf::57                      0                       # What write queue length does an incoming req see
system.mem_ctrls.wrQLenPdf::58                      0                       # What write queue length does an incoming req see
system.mem_ctrls.wrQLenPdf::59                      0                       # What write queue length does an incoming req see
system.mem_ctrls.wrQLenPdf::60                      0                       # What write queue length does an incoming req see
system.mem_ctrls.wrQLenPdf::61                      0                       # What write queue length does an incoming req see
system.mem_ctrls.wrQLenPdf::62                      0                       # What write queue length does an incoming req see
system.mem_ctrls.wrQLenPdf::63                      0                       # What write queue length does an incoming req see
system.mem_ctrls.bytesPerActivate::samples          398                       # Bytes accessed per row activation
system.mem_ctrls.bytesPerActivate::mean    247.798995                       # Bytes accessed per row activation
system.mem_ctrls.bytesPerActivate::gmean   164.777646                       # Bytes accessed per row activation
system.mem_ctrls.bytesPerActivate::stdev   248.151006                       # Bytes accessed per row activation
system.mem_ctrls.bytesPerActivate::0-127          138     34.67%     34.67% # Bytes accessed per row activation
system.mem_ctrls.bytesPerActivate::128-255          115     28.89%     63.57% # Bytes accessed per row activation
system.mem_ctrls.bytesPerActivate::256-383           55     13.82%     77.39% # Bytes accessed per row activation
system.mem_ctrls.bytesPerActivate::384-511           30      7.54%     84.92% # Bytes accessed per row activation
system.mem_ctrls.bytesPerActivate::512-639           19      4.77%     89.70% # Bytes accessed per row activation
system.mem_ctrls.bytesPerActivate::640-767           13      3.27%     92.96% # Bytes accessed per row activation
system.mem_ctrls.bytesPerActivate::768-895            7      1.76%     94.72% # Bytes accessed per row activation
system.mem_ctrls.bytesPerActivate::896-1023            7      1.76%     96.48% # Bytes accessed per row activation
system.mem_ctrls.bytesPerActivate::1024-1151           14      3.52%    100.00% # Bytes accessed per row activation
system.mem_ctrls.bytesPerActivate::total          398                       # Bytes accessed per row activation
system.mem_ctrls.totQLat                     12586250                       # Total ticks spent queuing
system.mem_ctrls.totMemAccLat                41836250                       # Total ticks spent from burst creation until serviced by the DRAM
system.mem_ctrls.totBusLat                    7800000                       # Total ticks spent in databus transfers
system.mem_ctrls.avgQLat                      8068.11                       # Average queueing delay per DRAM burst
system.mem_ctrls.avgBusLat                    5000.00                       # Average bus latency per DRAM burst
system.mem_ctrls.avgMemAccLat                26818.11                       # Average memory access latency per DRAM burst
system.mem_ctrls.avgRdBW                       317.56                       # Average DRAM read bandwidth in MiByte/s
system.mem_ctrls.avgWrBW                         0.00                       # Average achieved write bandwidth in MiByte/s
system.mem_ctrls.avgRdBWSys                    317.56                       # Average system read bandwidth in MiByte/s
system.mem_ctrls.avgWrBWSys                      0.00                       # Average system write bandwidth in MiByte/s
system.mem_ctrls.peakBW                      12800.00                       # Theoretical peak bandwidth in MiByte/s
system.mem_ctrls.busUtil                         2.48                       # Data bus utilization in percentage
system.mem_ctrls.busUtilRead                     2.48                       # Data bus utilization in percentage for reads
system.mem_ctrls.busUtilWrite                    0.00                       # Data bus utilization in percentage for writes
system.mem_ctrls.avgRdQLen                       1.04                       # Average read queue length when enqueuing
system.mem_ctrls.avgWrQLen                       0.00                       # Average write queue length when enqueuing
system.mem_ctrls.readRowHits                     1157                       # Number of row buffer hits during reads
system.mem_ctrls.writeRowHits                       0                       # Number of row buffer hits during writes
system.mem_ctrls.readRowHitRate                 74.17                       # Row buffer hit rate for reads
system.mem_ctrls.writeRowHitRate                  nan                       # Row buffer hit rate for writes
system.mem_ctrls.avgGap                     201446.79                       # Average gap between requests
system.mem_ctrls.pageHitRate                    74.17                       # Row buffer hit rate, read and write combined
system.mem_ctrls_0.actEnergy                  1141560                       # Energy for activate commands per rank (pJ)
system.mem_ctrls_0.preEnergy                   622875                       # Energy for precharge commands per rank (pJ)
system.mem_ctrls_0.readEnergy                 5335200                       # Energy for read commands per rank (pJ)
system.mem_ctrls_0.writeEnergy                      0                       # Energy for write commands per rank (pJ)
system.mem_ctrls_0.refreshEnergy             20342400                       # Energy for refresh commands per rank (pJ)
system.mem_ctrls_0.actBackEnergy            179243055                       # Energy for active background per rank (pJ)
system.mem_ctrls_0.preBackEnergy             29795250                       # Energy for precharge background per rank (pJ)
system.mem_ctrls_0.totalEnergy              236480340                       # Total energy per rank (pJ)
system.mem_ctrls_0.averagePower            758.654968                       # Core power per rank (mW)
system.mem_ctrls_0.memoryStateTime::IDLE     51073000                       # Time in different power states
system.mem_ctrls_0.memoryStateTime::REF      10400000                       # Time in different power states
system.mem_ctrls_0.memoryStateTime::PRE_PDN            0                       # Time in different power states
system.mem_ctrls_0.memoryStateTime::ACT     252847000                       # Time in different power states
system.mem_ctrls_0.memoryStateTime::ACT_PDN            0                       # Time in different power states
system.mem_ctrls_1.actEnergy                  1867320                       # Energy for activate commands per rank (pJ)
system.mem_ctrls_1.preEnergy                  1018875                       # Energy for precharge commands per rank (pJ)
system.mem_ctrls_1.readEnergy                 6684600                       # Energy for read commands per rank (pJ)
system.mem_ctrls_1.writeEnergy                      0                       # Energy for write commands per rank (pJ)
system.mem_ctrls_1.refreshEnergy             20342400                       # Energy for refresh commands per rank (pJ)
system.mem_ctrls_1.actBackEnergy            198048780                       # Energy for active background per rank (pJ)
system.mem_ctrls_1.preBackEnergy             13299000                       # Energy for precharge background per rank (pJ)
system.mem_ctrls_1.totalEnergy              241260975                       # Total energy per rank (pJ)
system.mem_ctrls_1.averagePower            773.991771                       # Core power per rank (mW)
system.mem_ctrls_1.memoryStateTime::IDLE     20941500                       # Time in different power states
system.mem_ctrls_1.memoryStateTime::REF      10400000                       # Time in different power states
system.mem_ctrls_1.memoryStateTime::PRE_PDN            0                       # Time in different power states
system.mem_ctrls_1.memoryStateTime::ACT     280382250                       # Time in different power states
system.mem_ctrls_1.memoryStateTime::ACT_PDN            0                       # Time in different power states
system.ruby.clk_domain.clock                      500                       # Clock period in ticks
system.ruby.phys_mem.bytes_read::cpu0.inst       696760                       # Number of bytes read from this memory
system.ruby.phys_mem.bytes_read::cpu0.data       119832                       # Number of bytes read from this memory
system.ruby.phys_mem.bytes_read::cpu1.CUs0.ComputeUnit         3280                       # Number of bytes read from this memory
system.ruby.phys_mem.bytes_read::cpu1.CUs1.ComputeUnit         3280                       # Number of bytes read from this memory
system.ruby.phys_mem.bytes_read::total         823152                       # Number of bytes read from this memory
system.ruby.phys_mem.bytes_inst_read::cpu0.inst       696760                       # Number of instructions bytes read from this memory
system.ruby.phys_mem.bytes_inst_read::cpu1.CUs0.ComputeUnit         2000                       # Number of instructions bytes read from this memory
system.ruby.phys_mem.bytes_inst_read::cpu1.CUs1.ComputeUnit         2000                       # Number of instructions bytes read from this memory
system.ruby.phys_mem.bytes_inst_read::total       700760                       # Number of instructions bytes read from this memory
system.ruby.phys_mem.bytes_written::cpu0.data        72767                       # Number of bytes written to this memory
system.ruby.phys_mem.bytes_written::cpu1.CUs0.ComputeUnit          256                       # Number of bytes written to this memory
system.ruby.phys_mem.bytes_written::cpu1.CUs1.ComputeUnit          256                       # Number of bytes written to this memory
system.ruby.phys_mem.bytes_written::total        73279                       # Number of bytes written to this memory
system.ruby.phys_mem.num_reads::cpu0.inst        87095                       # Number of read requests responded to by this memory
system.ruby.phys_mem.num_reads::cpu0.data        16686                       # Number of read requests responded to by this memory
system.ruby.phys_mem.num_reads::cpu1.CUs0.ComputeUnit          555                       # Number of read requests responded to by this memory
system.ruby.phys_mem.num_reads::cpu1.CUs1.ComputeUnit          555                       # Number of read requests responded to by this memory
system.ruby.phys_mem.num_reads::total          104891                       # Number of read requests responded to by this memory
system.ruby.phys_mem.num_writes::cpu0.data        10422                       # Number of write requests responded to by this memory
system.ruby.phys_mem.num_writes::cpu1.CUs0.ComputeUnit          256                       # Number of write requests responded to by this memory
system.ruby.phys_mem.num_writes::cpu1.CUs1.ComputeUnit          256                       # Number of write requests responded to by this memory
system.ruby.phys_mem.num_writes::total          10934                       # Number of write requests responded to by this memory
system.ruby.phys_mem.bw_read::cpu0.inst    2216161285                       # Total read bandwidth from this memory (bytes/s)
system.ruby.phys_mem.bw_read::cpu0.data     381145644                       # Total read bandwidth from this memory (bytes/s)
system.ruby.phys_mem.bw_read::cpu1.CUs0.ComputeUnit     10432587                       # Total read bandwidth from this memory (bytes/s)
system.ruby.phys_mem.bw_read::cpu1.CUs1.ComputeUnit     10432587                       # Total read bandwidth from this memory (bytes/s)
system.ruby.phys_mem.bw_read::total        2618172103                       # Total read bandwidth from this memory (bytes/s)
system.ruby.phys_mem.bw_inst_read::cpu0.inst   2216161285                       # Instruction read bandwidth from this memory (bytes/s)
system.ruby.phys_mem.bw_inst_read::cpu1.CUs0.ComputeUnit      6361333                       # Instruction read bandwidth from this memory (bytes/s)
system.ruby.phys_mem.bw_inst_read::cpu1.CUs1.ComputeUnit      6361333                       # Instruction read bandwidth from this memory (bytes/s)
system.ruby.phys_mem.bw_inst_read::total   2228883952                       # Instruction read bandwidth from this memory (bytes/s)
system.ruby.phys_mem.bw_write::cpu0.data    231447569                       # Write bandwidth from this memory (bytes/s)
system.ruby.phys_mem.bw_write::cpu1.CUs0.ComputeUnit       814251                       # Write bandwidth from this memory (bytes/s)
system.ruby.phys_mem.bw_write::cpu1.CUs1.ComputeUnit       814251                       # Write bandwidth from this memory (bytes/s)
system.ruby.phys_mem.bw_write::total        233076070                       # Write bandwidth from this memory (bytes/s)
system.ruby.phys_mem.bw_total::cpu0.inst   2216161285                       # Total bandwidth to/from this memory (bytes/s)
system.ruby.phys_mem.bw_total::cpu0.data    612593213                       # Total bandwidth to/from this memory (bytes/s)
system.ruby.phys_mem.bw_total::cpu1.CUs0.ComputeUnit     11246837                       # Total bandwidth to/from this memory (bytes/s)
system.ruby.phys_mem.bw_total::cpu1.CUs1.ComputeUnit     11246837                       # Total bandwidth to/from this memory (bytes/s)
system.ruby.phys_mem.bw_total::total       2851248173                       # Total bandwidth to/from this memory (bytes/s)
system.cpu0.clk_domain.clock                      500                       # Clock period in ticks
system.cpu0.apic_clk_domain.clock                8000                       # Clock period in ticks
system.cpu0.workload.numSyscalls                   21                       # Number of system calls
system.cpu0.numCycles                          628799                       # number of cpu cycles simulated
system.cpu0.numWorkItemsStarted                     0                       # number of work items this cpu started
system.cpu0.numWorkItemsCompleted                   0                       # number of work items this cpu completed
system.cpu0.committedInsts                      66963                       # Number of instructions committed
system.cpu0.committedOps                       137705                       # Number of ops (including micro ops) committed
system.cpu0.num_int_alu_accesses               136380                       # Number of integer alu accesses
system.cpu0.num_fp_alu_accesses                  1279                       # Number of float alu accesses
system.cpu0.num_func_calls                       3196                       # number of times a function call or return occured
system.cpu0.num_conditional_control_insts        12151                       # number of instructions that are conditional controls
system.cpu0.num_int_insts                      136380                       # number of integer instructions
system.cpu0.num_fp_insts                         1279                       # number of float instructions
system.cpu0.num_int_register_reads             257490                       # number of times the integer registers were read
system.cpu0.num_int_register_writes            110039                       # number of times the integer registers were written
system.cpu0.num_fp_register_reads                1981                       # number of times the floating registers were read
system.cpu0.num_fp_register_writes                981                       # number of times the floating registers were written
system.cpu0.num_cc_register_reads               78262                       # number of times the CC registers were read
system.cpu0.num_cc_register_writes              42183                       # number of times the CC registers were written
system.cpu0.num_mem_refs                        27198                       # number of memory refs
system.cpu0.num_load_insts                      16684                       # Number of load instructions
system.cpu0.num_store_insts                     10514                       # Number of store instructions
system.cpu0.num_idle_cycles               8671.003972                       # Number of idle cycles
system.cpu0.num_busy_cycles              620127.996028                       # Number of busy cycles
system.cpu0.not_idle_fraction                0.986210                       # Percentage of non-idle cycles
system.cpu0.idle_fraction                    0.013790                       # Percentage of idle cycles
system.cpu0.Branches                            16199                       # Number of branches fetched
system.cpu0.op_class::No_OpClass                  615      0.45%      0.45% # Class of executed instruction
system.cpu0.op_class::IntAlu                   108791     79.00%     79.45% # Class of executed instruction
system.cpu0.op_class::IntMult                      13      0.01%     79.46% # Class of executed instruction
system.cpu0.op_class::IntDiv                      138      0.10%     79.56% # Class of executed instruction
system.cpu0.op_class::FloatAdd                    950      0.69%     80.25% # Class of executed instruction
system.cpu0.op_class::FloatCmp                      0      0.00%     80.25% # Class of executed instruction
system.cpu0.op_class::FloatCvt                      0      0.00%     80.25% # Class of executed instruction
system.cpu0.op_class::FloatMult                     0      0.00%     80.25% # Class of executed instruction
system.cpu0.op_class::FloatDiv                      0      0.00%     80.25% # Class of executed instruction
system.cpu0.op_class::FloatSqrt                     0      0.00%     80.25% # Class of executed instruction
system.cpu0.op_class::SimdAdd                       0      0.00%     80.25% # Class of executed instruction
system.cpu0.op_class::SimdAddAcc                    0      0.00%     80.25% # Class of executed instruction
system.cpu0.op_class::SimdAlu                       0      0.00%     80.25% # Class of executed instruction
system.cpu0.op_class::SimdCmp                       0      0.00%     80.25% # Class of executed instruction
system.cpu0.op_class::SimdCvt                       0      0.00%     80.25% # Class of executed instruction
system.cpu0.op_class::SimdMisc                      0      0.00%     80.25% # Class of executed instruction
system.cpu0.op_class::SimdMult                      0      0.00%     80.25% # Class of executed instruction
system.cpu0.op_class::SimdMultAcc                   0      0.00%     80.25% # Class of executed instruction
system.cpu0.op_class::SimdShift                     0      0.00%     80.25% # Class of executed instruction
system.cpu0.op_class::SimdShiftAcc                  0      0.00%     80.25% # Class of executed instruction
system.cpu0.op_class::SimdSqrt                      0      0.00%     80.25% # Class of executed instruction
system.cpu0.op_class::SimdFloatAdd                  0      0.00%     80.25% # Class of executed instruction
system.cpu0.op_class::SimdFloatAlu                  0      0.00%     80.25% # Class of executed instruction
system.cpu0.op_class::SimdFloatCmp                  0      0.00%     80.25% # Class of executed instruction
system.cpu0.op_class::SimdFloatCvt                  0      0.00%     80.25% # Class of executed instruction
system.cpu0.op_class::SimdFloatDiv                  0      0.00%     80.25% # Class of executed instruction
system.cpu0.op_class::SimdFloatMisc                 0      0.00%     80.25% # Class of executed instruction
system.cpu0.op_class::SimdFloatMult                 0      0.00%     80.25% # Class of executed instruction
system.cpu0.op_class::SimdFloatMultAcc              0      0.00%     80.25% # Class of executed instruction
system.cpu0.op_class::SimdFloatSqrt                 0      0.00%     80.25% # Class of executed instruction
system.cpu0.op_class::MemRead                   16684     12.12%     92.36% # Class of executed instruction
system.cpu0.op_class::MemWrite                  10514      7.64%    100.00% # Class of executed instruction
system.cpu0.op_class::IprAccess                     0      0.00%    100.00% # Class of executed instruction
system.cpu0.op_class::InstPrefetch                  0      0.00%    100.00% # Class of executed instruction
system.cpu0.op_class::total                    137705                       # Class of executed instruction
system.cpu1.clk_domain.voltage_domain.voltage            1                       # Voltage in Volts
system.cpu1.clk_domain.clock                     1000                       # Clock period in ticks
system.cpu1.CUs0.wavefronts00.timesBlockedDueVrfPortAvail            0                       # number of times instructions are blocked due to VRF port availability
system.cpu1.CUs0.wavefronts00.timesBlockedDueWAXDependencies            0                       # number of times the wf's instructions are blocked due to WAW or WAR dependencies
system.cpu1.CUs0.wavefronts00.timesBlockedDueRAWDependencies          216                       # number of times the wf's instructions are blocked due to RAW dependencies
system.cpu1.CUs0.wavefronts00.src_reg_operand_dist::samples           39                       # number of executed instructions with N source register operands
system.cpu1.CUs0.wavefronts00.src_reg_operand_dist::mean     0.794872                       # number of executed instructions with N source register operands
system.cpu1.CUs0.wavefronts00.src_reg_operand_dist::stdev     0.863880                       # number of executed instructions with N source register operands
system.cpu1.CUs0.wavefronts00.src_reg_operand_dist::underflows            0      0.00%      0.00% # number of executed instructions with N source register operands
system.cpu1.CUs0.wavefronts00.src_reg_operand_dist::0-1           28     71.79%     71.79% # number of executed instructions with N source register operands
system.cpu1.CUs0.wavefronts00.src_reg_operand_dist::2-3           11     28.21%    100.00% # number of executed instructions with N source register operands
system.cpu1.CUs0.wavefronts00.src_reg_operand_dist::4            0      0.00%    100.00% # number of executed instructions with N source register operands
system.cpu1.CUs0.wavefronts00.src_reg_operand_dist::overflows            0      0.00%    100.00% # number of executed instructions with N source register operands
system.cpu1.CUs0.wavefronts00.src_reg_operand_dist::min_value            0                       # number of executed instructions with N source register operands
system.cpu1.CUs0.wavefronts00.src_reg_operand_dist::max_value            2                       # number of executed instructions with N source register operands
system.cpu1.CUs0.wavefronts00.src_reg_operand_dist::total           39                       # number of executed instructions with N source register operands
system.cpu1.CUs0.wavefronts00.dst_reg_operand_dist::samples           39                       # number of executed instructions with N destination register operands
system.cpu1.CUs0.wavefronts00.dst_reg_operand_dist::mean     0.589744                       # number of executed instructions with N destination register operands
system.cpu1.CUs0.wavefronts00.dst_reg_operand_dist::stdev     0.498310                       # number of executed instructions with N destination register operands
system.cpu1.CUs0.wavefronts00.dst_reg_operand_dist::underflows            0      0.00%      0.00% # number of executed instructions with N destination register operands
system.cpu1.CUs0.wavefronts00.dst_reg_operand_dist::0-1           39    100.00%    100.00% # number of executed instructions with N destination register operands
system.cpu1.CUs0.wavefronts00.dst_reg_operand_dist::2-3            0      0.00%    100.00% # number of executed instructions with N destination register operands
system.cpu1.CUs0.wavefronts00.dst_reg_operand_dist::overflows            0      0.00%    100.00% # number of executed instructions with N destination register operands
system.cpu1.CUs0.wavefronts00.dst_reg_operand_dist::min_value            0                       # number of executed instructions with N destination register operands
system.cpu1.CUs0.wavefronts00.dst_reg_operand_dist::max_value            1                       # number of executed instructions with N destination register operands
system.cpu1.CUs0.wavefronts00.dst_reg_operand_dist::total           39                       # number of executed instructions with N destination register operands
system.cpu1.CUs0.wavefronts01.timesBlockedDueVrfPortAvail            0                       # number of times instructions are blocked due to VRF port availability
system.cpu1.CUs0.wavefronts01.timesBlockedDueWAXDependencies            0                       # number of times the wf's instructions are blocked due to WAW or WAR dependencies
system.cpu1.CUs0.wavefronts01.timesBlockedDueRAWDependencies            0                       # number of times the wf's instructions are blocked due to RAW dependencies
system.cpu1.CUs0.wavefronts01.src_reg_operand_dist::samples            0                       # number of executed instructions with N source register operands
system.cpu1.CUs0.wavefronts01.src_reg_operand_dist::mean          nan                       # number of executed instructions with N source register operands
system.cpu1.CUs0.wavefronts01.src_reg_operand_dist::stdev          nan                       # number of executed instructions with N source register operands
system.cpu1.CUs0.wavefronts01.src_reg_operand_dist::underflows            0                       # number of executed instructions with N source register operands
system.cpu1.CUs0.wavefronts01.src_reg_operand_dist::0-1            0                       # number of executed instructions with N source register operands
system.cpu1.CUs0.wavefronts01.src_reg_operand_dist::2-3            0                       # number of executed instructions with N source register operands
system.cpu1.CUs0.wavefronts01.src_reg_operand_dist::4            0                       # number of executed instructions with N source register operands
system.cpu1.CUs0.wavefronts01.src_reg_operand_dist::overflows            0                       # number of executed instructions with N source register operands
system.cpu1.CUs0.wavefronts01.src_reg_operand_dist::min_value            0                       # number of executed instructions with N source register operands
system.cpu1.CUs0.wavefronts01.src_reg_operand_dist::max_value            0                       # number of executed instructions with N source register operands
system.cpu1.CUs0.wavefronts01.src_reg_operand_dist::total            0                       # number of executed instructions with N source register operands
system.cpu1.CUs0.wavefronts01.dst_reg_operand_dist::samples            0                       # number of executed instructions with N destination register operands
system.cpu1.CUs0.wavefronts01.dst_reg_operand_dist::mean          nan                       # number of executed instructions with N destination register operands
system.cpu1.CUs0.wavefronts01.dst_reg_operand_dist::stdev          nan                       # number of executed instructions with N destination register operands
system.cpu1.CUs0.wavefronts01.dst_reg_operand_dist::underflows            0                       # number of executed instructions with N destination register operands
system.cpu1.CUs0.wavefronts01.dst_reg_operand_dist::0-1            0                       # number of executed instructions with N destination register operands
system.cpu1.CUs0.wavefronts01.dst_reg_operand_dist::2-3            0                       # number of executed instructions with N destination register operands
system.cpu1.CUs0.wavefronts01.dst_reg_operand_dist::overflows            0                       # number of executed instructions with N destination register operands
system.cpu1.CUs0.wavefronts01.dst_reg_operand_dist::min_value            0                       # number of executed instructions with N destination register operands
system.cpu1.CUs0.wavefronts01.dst_reg_operand_dist::max_value            0                       # number of executed instructions with N destination register operands
system.cpu1.CUs0.wavefronts01.dst_reg_operand_dist::total            0                       # number of executed instructions with N destination register operands
system.cpu1.CUs0.wavefronts02.timesBlockedDueVrfPortAvail            0                       # number of times instructions are blocked due to VRF port availability
system.cpu1.CUs0.wavefronts02.timesBlockedDueWAXDependencies            0                       # number of times the wf's instructions are blocked due to WAW or WAR dependencies
system.cpu1.CUs0.wavefronts02.timesBlockedDueRAWDependencies            0                       # number of times the wf's instructions are blocked due to RAW dependencies
system.cpu1.CUs0.wavefronts02.src_reg_operand_dist::samples            0                       # number of executed instructions with N source register operands
system.cpu1.CUs0.wavefronts02.src_reg_operand_dist::mean          nan                       # number of executed instructions with N source register operands
system.cpu1.CUs0.wavefronts02.src_reg_operand_dist::stdev          nan                       # number of executed instructions with N source register operands
system.cpu1.CUs0.wavefronts02.src_reg_operand_dist::underflows            0                       # number of executed instructions with N source register operands
system.cpu1.CUs0.wavefronts02.src_reg_operand_dist::0-1            0                       # number of executed instructions with N source register operands
system.cpu1.CUs0.wavefronts02.src_reg_operand_dist::2-3            0                       # number of executed instructions with N source register operands
system.cpu1.CUs0.wavefronts02.src_reg_operand_dist::4            0                       # number of executed instructions with N source register operands
system.cpu1.CUs0.wavefronts02.src_reg_operand_dist::overflows            0                       # number of executed instructions with N source register operands
system.cpu1.CUs0.wavefronts02.src_reg_operand_dist::min_value            0                       # number of executed instructions with N source register operands
system.cpu1.CUs0.wavefronts02.src_reg_operand_dist::max_value            0                       # number of executed instructions with N source register operands
system.cpu1.CUs0.wavefronts02.src_reg_operand_dist::total            0                       # number of executed instructions with N source register operands
system.cpu1.CUs0.wavefronts02.dst_reg_operand_dist::samples            0                       # number of executed instructions with N destination register operands
system.cpu1.CUs0.wavefronts02.dst_reg_operand_dist::mean          nan                       # number of executed instructions with N destination register operands
system.cpu1.CUs0.wavefronts02.dst_reg_operand_dist::stdev          nan                       # number of executed instructions with N destination register operands
system.cpu1.CUs0.wavefronts02.dst_reg_operand_dist::underflows            0                       # number of executed instructions with N destination register operands
system.cpu1.CUs0.wavefronts02.dst_reg_operand_dist::0-1            0                       # number of executed instructions with N destination register operands
system.cpu1.CUs0.wavefronts02.dst_reg_operand_dist::2-3            0                       # number of executed instructions with N destination register operands
system.cpu1.CUs0.wavefronts02.dst_reg_operand_dist::overflows            0                       # number of executed instructions with N destination register operands
system.cpu1.CUs0.wavefronts02.dst_reg_operand_dist::min_value            0                       # number of executed instructions with N destination register operands
system.cpu1.CUs0.wavefronts02.dst_reg_operand_dist::max_value            0                       # number of executed instructions with N destination register operands
system.cpu1.CUs0.wavefronts02.dst_reg_operand_dist::total            0                       # number of executed instructions with N destination register operands
system.cpu1.CUs0.wavefronts03.timesBlockedDueVrfPortAvail            0                       # number of times instructions are blocked due to VRF port availability
system.cpu1.CUs0.wavefronts03.timesBlockedDueWAXDependencies            0                       # number of times the wf's instructions are blocked due to WAW or WAR dependencies
system.cpu1.CUs0.wavefronts03.timesBlockedDueRAWDependencies            0                       # number of times the wf's instructions are blocked due to RAW dependencies
system.cpu1.CUs0.wavefronts03.src_reg_operand_dist::samples            0                       # number of executed instructions with N source register operands
system.cpu1.CUs0.wavefronts03.src_reg_operand_dist::mean          nan                       # number of executed instructions with N source register operands
system.cpu1.CUs0.wavefronts03.src_reg_operand_dist::stdev          nan                       # number of executed instructions with N source register operands
system.cpu1.CUs0.wavefronts03.src_reg_operand_dist::underflows            0                       # number of executed instructions with N source register operands
system.cpu1.CUs0.wavefronts03.src_reg_operand_dist::0-1            0                       # number of executed instructions with N source register operands
system.cpu1.CUs0.wavefronts03.src_reg_operand_dist::2-3            0                       # number of executed instructions with N source register operands
system.cpu1.CUs0.wavefronts03.src_reg_operand_dist::4            0                       # number of executed instructions with N source register operands
system.cpu1.CUs0.wavefronts03.src_reg_operand_dist::overflows            0                       # number of executed instructions with N source register operands
system.cpu1.CUs0.wavefronts03.src_reg_operand_dist::min_value            0                       # number of executed instructions with N source register operands
system.cpu1.CUs0.wavefronts03.src_reg_operand_dist::max_value            0                       # number of executed instructions with N source register operands
system.cpu1.CUs0.wavefronts03.src_reg_operand_dist::total            0                       # number of executed instructions with N source register operands
system.cpu1.CUs0.wavefronts03.dst_reg_operand_dist::samples            0                       # number of executed instructions with N destination register operands
system.cpu1.CUs0.wavefronts03.dst_reg_operand_dist::mean          nan                       # number of executed instructions with N destination register operands
system.cpu1.CUs0.wavefronts03.dst_reg_operand_dist::stdev          nan                       # number of executed instructions with N destination register operands
system.cpu1.CUs0.wavefronts03.dst_reg_operand_dist::underflows            0                       # number of executed instructions with N destination register operands
system.cpu1.CUs0.wavefronts03.dst_reg_operand_dist::0-1            0                       # number of executed instructions with N destination register operands
system.cpu1.CUs0.wavefronts03.dst_reg_operand_dist::2-3            0                       # number of executed instructions with N destination register operands
system.cpu1.CUs0.wavefronts03.dst_reg_operand_dist::overflows            0                       # number of executed instructions with N destination register operands
system.cpu1.CUs0.wavefronts03.dst_reg_operand_dist::min_value            0                       # number of executed instructions with N destination register operands
system.cpu1.CUs0.wavefronts03.dst_reg_operand_dist::max_value            0                       # number of executed instructions with N destination register operands
system.cpu1.CUs0.wavefronts03.dst_reg_operand_dist::total            0                       # number of executed instructions with N destination register operands
system.cpu1.CUs0.wavefronts04.timesBlockedDueVrfPortAvail            0                       # number of times instructions are blocked due to VRF port availability
system.cpu1.CUs0.wavefronts04.timesBlockedDueWAXDependencies            0                       # number of times the wf's instructions are blocked due to WAW or WAR dependencies
system.cpu1.CUs0.wavefronts04.timesBlockedDueRAWDependencies            0                       # number of times the wf's instructions are blocked due to RAW dependencies
system.cpu1.CUs0.wavefronts04.src_reg_operand_dist::samples            0                       # number of executed instructions with N source register operands
system.cpu1.CUs0.wavefronts04.src_reg_operand_dist::mean          nan                       # number of executed instructions with N source register operands
system.cpu1.CUs0.wavefronts04.src_reg_operand_dist::stdev          nan                       # number of executed instructions with N source register operands
system.cpu1.CUs0.wavefronts04.src_reg_operand_dist::underflows            0                       # number of executed instructions with N source register operands
system.cpu1.CUs0.wavefronts04.src_reg_operand_dist::0-1            0                       # number of executed instructions with N source register operands
system.cpu1.CUs0.wavefronts04.src_reg_operand_dist::2-3            0                       # number of executed instructions with N source register operands
system.cpu1.CUs0.wavefronts04.src_reg_operand_dist::4            0                       # number of executed instructions with N source register operands
system.cpu1.CUs0.wavefronts04.src_reg_operand_dist::overflows            0                       # number of executed instructions with N source register operands
system.cpu1.CUs0.wavefronts04.src_reg_operand_dist::min_value            0                       # number of executed instructions with N source register operands
system.cpu1.CUs0.wavefronts04.src_reg_operand_dist::max_value            0                       # number of executed instructions with N source register operands
system.cpu1.CUs0.wavefronts04.src_reg_operand_dist::total            0                       # number of executed instructions with N source register operands
system.cpu1.CUs0.wavefronts04.dst_reg_operand_dist::samples            0                       # number of executed instructions with N destination register operands
system.cpu1.CUs0.wavefronts04.dst_reg_operand_dist::mean          nan                       # number of executed instructions with N destination register operands
system.cpu1.CUs0.wavefronts04.dst_reg_operand_dist::stdev          nan                       # number of executed instructions with N destination register operands
system.cpu1.CUs0.wavefronts04.dst_reg_operand_dist::underflows            0                       # number of executed instructions with N destination register operands
system.cpu1.CUs0.wavefronts04.dst_reg_operand_dist::0-1            0                       # number of executed instructions with N destination register operands
system.cpu1.CUs0.wavefronts04.dst_reg_operand_dist::2-3            0                       # number of executed instructions with N destination register operands
system.cpu1.CUs0.wavefronts04.dst_reg_operand_dist::overflows            0                       # number of executed instructions with N destination register operands
system.cpu1.CUs0.wavefronts04.dst_reg_operand_dist::min_value            0                       # number of executed instructions with N destination register operands
system.cpu1.CUs0.wavefronts04.dst_reg_operand_dist::max_value            0                       # number of executed instructions with N destination register operands
system.cpu1.CUs0.wavefronts04.dst_reg_operand_dist::total            0                       # number of executed instructions with N destination register operands
system.cpu1.CUs0.wavefronts05.timesBlockedDueVrfPortAvail            0                       # number of times instructions are blocked due to VRF port availability
system.cpu1.CUs0.wavefronts05.timesBlockedDueWAXDependencies            0                       # number of times the wf's instructions are blocked due to WAW or WAR dependencies
system.cpu1.CUs0.wavefronts05.timesBlockedDueRAWDependencies            0                       # number of times the wf's instructions are blocked due to RAW dependencies
system.cpu1.CUs0.wavefronts05.src_reg_operand_dist::samples            0                       # number of executed instructions with N source register operands
system.cpu1.CUs0.wavefronts05.src_reg_operand_dist::mean          nan                       # number of executed instructions with N source register operands
system.cpu1.CUs0.wavefronts05.src_reg_operand_dist::stdev          nan                       # number of executed instructions with N source register operands
system.cpu1.CUs0.wavefronts05.src_reg_operand_dist::underflows            0                       # number of executed instructions with N source register operands
system.cpu1.CUs0.wavefronts05.src_reg_operand_dist::0-1            0                       # number of executed instructions with N source register operands
system.cpu1.CUs0.wavefronts05.src_reg_operand_dist::2-3            0                       # number of executed instructions with N source register operands
system.cpu1.CUs0.wavefronts05.src_reg_operand_dist::4            0                       # number of executed instructions with N source register operands
system.cpu1.CUs0.wavefronts05.src_reg_operand_dist::overflows            0                       # number of executed instructions with N source register operands
system.cpu1.CUs0.wavefronts05.src_reg_operand_dist::min_value            0                       # number of executed instructions with N source register operands
system.cpu1.CUs0.wavefronts05.src_reg_operand_dist::max_value            0                       # number of executed instructions with N source register operands
system.cpu1.CUs0.wavefronts05.src_reg_operand_dist::total            0                       # number of executed instructions with N source register operands
system.cpu1.CUs0.wavefronts05.dst_reg_operand_dist::samples            0                       # number of executed instructions with N destination register operands
system.cpu1.CUs0.wavefronts05.dst_reg_operand_dist::mean          nan                       # number of executed instructions with N destination register operands
system.cpu1.CUs0.wavefronts05.dst_reg_operand_dist::stdev          nan                       # number of executed instructions with N destination register operands
system.cpu1.CUs0.wavefronts05.dst_reg_operand_dist::underflows            0                       # number of executed instructions with N destination register operands
system.cpu1.CUs0.wavefronts05.dst_reg_operand_dist::0-1            0                       # number of executed instructions with N destination register operands
system.cpu1.CUs0.wavefronts05.dst_reg_operand_dist::2-3            0                       # number of executed instructions with N destination register operands
system.cpu1.CUs0.wavefronts05.dst_reg_operand_dist::overflows            0                       # number of executed instructions with N destination register operands
system.cpu1.CUs0.wavefronts05.dst_reg_operand_dist::min_value            0                       # number of executed instructions with N destination register operands
system.cpu1.CUs0.wavefronts05.dst_reg_operand_dist::max_value            0                       # number of executed instructions with N destination register operands
system.cpu1.CUs0.wavefronts05.dst_reg_operand_dist::total            0                       # number of executed instructions with N destination register operands
system.cpu1.CUs0.wavefronts06.timesBlockedDueVrfPortAvail            0                       # number of times instructions are blocked due to VRF port availability
system.cpu1.CUs0.wavefronts06.timesBlockedDueWAXDependencies            0                       # number of times the wf's instructions are blocked due to WAW or WAR dependencies
system.cpu1.CUs0.wavefronts06.timesBlockedDueRAWDependencies            0                       # number of times the wf's instructions are blocked due to RAW dependencies
system.cpu1.CUs0.wavefronts06.src_reg_operand_dist::samples            0                       # number of executed instructions with N source register operands
system.cpu1.CUs0.wavefronts06.src_reg_operand_dist::mean          nan                       # number of executed instructions with N source register operands
system.cpu1.CUs0.wavefronts06.src_reg_operand_dist::stdev          nan                       # number of executed instructions with N source register operands
system.cpu1.CUs0.wavefronts06.src_reg_operand_dist::underflows            0                       # number of executed instructions with N source register operands
system.cpu1.CUs0.wavefronts06.src_reg_operand_dist::0-1            0                       # number of executed instructions with N source register operands
system.cpu1.CUs0.wavefronts06.src_reg_operand_dist::2-3            0                       # number of executed instructions with N source register operands
system.cpu1.CUs0.wavefronts06.src_reg_operand_dist::4            0                       # number of executed instructions with N source register operands
system.cpu1.CUs0.wavefronts06.src_reg_operand_dist::overflows            0                       # number of executed instructions with N source register operands
system.cpu1.CUs0.wavefronts06.src_reg_operand_dist::min_value            0                       # number of executed instructions with N source register operands
system.cpu1.CUs0.wavefronts06.src_reg_operand_dist::max_value            0                       # number of executed instructions with N source register operands
system.cpu1.CUs0.wavefronts06.src_reg_operand_dist::total            0                       # number of executed instructions with N source register operands
system.cpu1.CUs0.wavefronts06.dst_reg_operand_dist::samples            0                       # number of executed instructions with N destination register operands
system.cpu1.CUs0.wavefronts06.dst_reg_operand_dist::mean          nan                       # number of executed instructions with N destination register operands
system.cpu1.CUs0.wavefronts06.dst_reg_operand_dist::stdev          nan                       # number of executed instructions with N destination register operands
system.cpu1.CUs0.wavefronts06.dst_reg_operand_dist::underflows            0                       # number of executed instructions with N destination register operands
system.cpu1.CUs0.wavefronts06.dst_reg_operand_dist::0-1            0                       # number of executed instructions with N destination register operands
system.cpu1.CUs0.wavefronts06.dst_reg_operand_dist::2-3            0                       # number of executed instructions with N destination register operands
system.cpu1.CUs0.wavefronts06.dst_reg_operand_dist::overflows            0                       # number of executed instructions with N destination register operands
system.cpu1.CUs0.wavefronts06.dst_reg_operand_dist::min_value            0                       # number of executed instructions with N destination register operands
system.cpu1.CUs0.wavefronts06.dst_reg_operand_dist::max_value            0                       # number of executed instructions with N destination register operands
system.cpu1.CUs0.wavefronts06.dst_reg_operand_dist::total            0                       # number of executed instructions with N destination register operands
system.cpu1.CUs0.wavefronts07.timesBlockedDueVrfPortAvail            0                       # number of times instructions are blocked due to VRF port availability
system.cpu1.CUs0.wavefronts07.timesBlockedDueWAXDependencies            0                       # number of times the wf's instructions are blocked due to WAW or WAR dependencies
system.cpu1.CUs0.wavefronts07.timesBlockedDueRAWDependencies            0                       # number of times the wf's instructions are blocked due to RAW dependencies
system.cpu1.CUs0.wavefronts07.src_reg_operand_dist::samples            0                       # number of executed instructions with N source register operands
system.cpu1.CUs0.wavefronts07.src_reg_operand_dist::mean          nan                       # number of executed instructions with N source register operands
system.cpu1.CUs0.wavefronts07.src_reg_operand_dist::stdev          nan                       # number of executed instructions with N source register operands
system.cpu1.CUs0.wavefronts07.src_reg_operand_dist::underflows            0                       # number of executed instructions with N source register operands
system.cpu1.CUs0.wavefronts07.src_reg_operand_dist::0-1            0                       # number of executed instructions with N source register operands
system.cpu1.CUs0.wavefronts07.src_reg_operand_dist::2-3            0                       # number of executed instructions with N source register operands
system.cpu1.CUs0.wavefronts07.src_reg_operand_dist::4            0                       # number of executed instructions with N source register operands
system.cpu1.CUs0.wavefronts07.src_reg_operand_dist::overflows            0                       # number of executed instructions with N source register operands
system.cpu1.CUs0.wavefronts07.src_reg_operand_dist::min_value            0                       # number of executed instructions with N source register operands
system.cpu1.CUs0.wavefronts07.src_reg_operand_dist::max_value            0                       # number of executed instructions with N source register operands
system.cpu1.CUs0.wavefronts07.src_reg_operand_dist::total            0                       # number of executed instructions with N source register operands
system.cpu1.CUs0.wavefronts07.dst_reg_operand_dist::samples            0                       # number of executed instructions with N destination register operands
system.cpu1.CUs0.wavefronts07.dst_reg_operand_dist::mean          nan                       # number of executed instructions with N destination register operands
system.cpu1.CUs0.wavefronts07.dst_reg_operand_dist::stdev          nan                       # number of executed instructions with N destination register operands
system.cpu1.CUs0.wavefronts07.dst_reg_operand_dist::underflows            0                       # number of executed instructions with N destination register operands
system.cpu1.CUs0.wavefronts07.dst_reg_operand_dist::0-1            0                       # number of executed instructions with N destination register operands
system.cpu1.CUs0.wavefronts07.dst_reg_operand_dist::2-3            0                       # number of executed instructions with N destination register operands
system.cpu1.CUs0.wavefronts07.dst_reg_operand_dist::overflows            0                       # number of executed instructions with N destination register operands
system.cpu1.CUs0.wavefronts07.dst_reg_operand_dist::min_value            0                       # number of executed instructions with N destination register operands
system.cpu1.CUs0.wavefronts07.dst_reg_operand_dist::max_value            0                       # number of executed instructions with N destination register operands
system.cpu1.CUs0.wavefronts07.dst_reg_operand_dist::total            0                       # number of executed instructions with N destination register operands
system.cpu1.CUs0.wavefronts08.timesBlockedDueVrfPortAvail            0                       # number of times instructions are blocked due to VRF port availability
system.cpu1.CUs0.wavefronts08.timesBlockedDueWAXDependencies            0                       # number of times the wf's instructions are blocked due to WAW or WAR dependencies
system.cpu1.CUs0.wavefronts08.timesBlockedDueRAWDependencies          195                       # number of times the wf's instructions are blocked due to RAW dependencies
system.cpu1.CUs0.wavefronts08.src_reg_operand_dist::samples           34                       # number of executed instructions with N source register operands
system.cpu1.CUs0.wavefronts08.src_reg_operand_dist::mean     0.852941                       # number of executed instructions with N source register operands
system.cpu1.CUs0.wavefronts08.src_reg_operand_dist::stdev     0.857493                       # number of executed instructions with N source register operands
system.cpu1.CUs0.wavefronts08.src_reg_operand_dist::underflows            0      0.00%      0.00% # number of executed instructions with N source register operands
system.cpu1.CUs0.wavefronts08.src_reg_operand_dist::0-1           24     70.59%     70.59% # number of executed instructions with N source register operands
system.cpu1.CUs0.wavefronts08.src_reg_operand_dist::2-3           10     29.41%    100.00% # number of executed instructions with N source register operands
system.cpu1.CUs0.wavefronts08.src_reg_operand_dist::4            0      0.00%    100.00% # number of executed instructions with N source register operands
system.cpu1.CUs0.wavefronts08.src_reg_operand_dist::overflows            0      0.00%    100.00% # number of executed instructions with N source register operands
system.cpu1.CUs0.wavefronts08.src_reg_operand_dist::min_value            0                       # number of executed instructions with N source register operands
system.cpu1.CUs0.wavefronts08.src_reg_operand_dist::max_value            2                       # number of executed instructions with N source register operands
system.cpu1.CUs0.wavefronts08.src_reg_operand_dist::total           34                       # number of executed instructions with N source register operands
system.cpu1.CUs0.wavefronts08.dst_reg_operand_dist::samples           34                       # number of executed instructions with N destination register operands
system.cpu1.CUs0.wavefronts08.dst_reg_operand_dist::mean     0.617647                       # number of executed instructions with N destination register operands
system.cpu1.CUs0.wavefronts08.dst_reg_operand_dist::stdev     0.493270                       # number of executed instructions with N destination register operands
system.cpu1.CUs0.wavefronts08.dst_reg_operand_dist::underflows            0      0.00%      0.00% # number of executed instructions with N destination register operands
system.cpu1.CUs0.wavefronts08.dst_reg_operand_dist::0-1           34    100.00%    100.00% # number of executed instructions with N destination register operands
system.cpu1.CUs0.wavefronts08.dst_reg_operand_dist::2-3            0      0.00%    100.00% # number of executed instructions with N destination register operands
system.cpu1.CUs0.wavefronts08.dst_reg_operand_dist::overflows            0      0.00%    100.00% # number of executed instructions with N destination register operands
system.cpu1.CUs0.wavefronts08.dst_reg_operand_dist::min_value            0                       # number of executed instructions with N destination register operands
system.cpu1.CUs0.wavefronts08.dst_reg_operand_dist::max_value            1                       # number of executed instructions with N destination register operands
system.cpu1.CUs0.wavefronts08.dst_reg_operand_dist::total           34                       # number of executed instructions with N destination register operands
system.cpu1.CUs0.wavefronts09.timesBlockedDueVrfPortAvail            0                       # number of times instructions are blocked due to VRF port availability
system.cpu1.CUs0.wavefronts09.timesBlockedDueWAXDependencies            0                       # number of times the wf's instructions are blocked due to WAW or WAR dependencies
system.cpu1.CUs0.wavefronts09.timesBlockedDueRAWDependencies            0                       # number of times the wf's instructions are blocked due to RAW dependencies
system.cpu1.CUs0.wavefronts09.src_reg_operand_dist::samples            0                       # number of executed instructions with N source register operands
system.cpu1.CUs0.wavefronts09.src_reg_operand_dist::mean          nan                       # number of executed instructions with N source register operands
system.cpu1.CUs0.wavefronts09.src_reg_operand_dist::stdev          nan                       # number of executed instructions with N source register operands
system.cpu1.CUs0.wavefronts09.src_reg_operand_dist::underflows            0                       # number of executed instructions with N source register operands
system.cpu1.CUs0.wavefronts09.src_reg_operand_dist::0-1            0                       # number of executed instructions with N source register operands
system.cpu1.CUs0.wavefronts09.src_reg_operand_dist::2-3            0                       # number of executed instructions with N source register operands
system.cpu1.CUs0.wavefronts09.src_reg_operand_dist::4            0                       # number of executed instructions with N source register operands
system.cpu1.CUs0.wavefronts09.src_reg_operand_dist::overflows            0                       # number of executed instructions with N source register operands
system.cpu1.CUs0.wavefronts09.src_reg_operand_dist::min_value            0                       # number of executed instructions with N source register operands
system.cpu1.CUs0.wavefronts09.src_reg_operand_dist::max_value            0                       # number of executed instructions with N source register operands
system.cpu1.CUs0.wavefronts09.src_reg_operand_dist::total            0                       # number of executed instructions with N source register operands
system.cpu1.CUs0.wavefronts09.dst_reg_operand_dist::samples            0                       # number of executed instructions with N destination register operands
system.cpu1.CUs0.wavefronts09.dst_reg_operand_dist::mean          nan                       # number of executed instructions with N destination register operands
system.cpu1.CUs0.wavefronts09.dst_reg_operand_dist::stdev          nan                       # number of executed instructions with N destination register operands
system.cpu1.CUs0.wavefronts09.dst_reg_operand_dist::underflows            0                       # number of executed instructions with N destination register operands
system.cpu1.CUs0.wavefronts09.dst_reg_operand_dist::0-1            0                       # number of executed instructions with N destination register operands
system.cpu1.CUs0.wavefronts09.dst_reg_operand_dist::2-3            0                       # number of executed instructions with N destination register operands
system.cpu1.CUs0.wavefronts09.dst_reg_operand_dist::overflows            0                       # number of executed instructions with N destination register operands
[...]
system.ruby.ST.Directory.hit_type_mach_latency_hist::bucket_size          128                      
system.ruby.ST.Directory.hit_type_mach_latency_hist::max_bucket         1279                      
system.ruby.ST.Directory.hit_type_mach_latency_hist::samples          322                      
system.ruby.ST.Directory.hit_type_mach_latency_hist::mean   254.509317                      
system.ruby.ST.Directory.hit_type_mach_latency_hist::gmean   250.282441                      
system.ruby.ST.Directory.hit_type_mach_latency_hist::stdev    65.931487                      
system.ruby.ST.Directory.hit_type_mach_latency_hist |           0      0.00%      0.00% |         254     78.88%     78.88% |          62     19.25%     98.14% |           0      0.00%     98.14% |           1      0.31%     98.45% |           4      1.24%     99.69% |           1      0.31%    100.00% |           0      0.00%    100.00% |           0      0.00%    100.00% |           0      0.00%    100.00%
system.ruby.ST.Directory.hit_type_mach_latency_hist::total          322                      
system.ruby.IFETCH.L1Cache.miss_type_mach_latency_hist::bucket_size            1                      
system.ruby.IFETCH.L1Cache.miss_type_mach_latency_hist::max_bucket            9                      
system.ruby.IFETCH.L1Cache.miss_type_mach_latency_hist::samples        86007                      
system.ruby.IFETCH.L1Cache.miss_type_mach_latency_hist::mean            1                      
system.ruby.IFETCH.L1Cache.miss_type_mach_latency_hist::gmean            1                      
system.ruby.IFETCH.L1Cache.miss_type_mach_latency_hist |           0      0.00%      0.00% |       86007    100.00%    100.00% |           0      0.00%    100.00% |           0      0.00%    100.00% |           0      0.00%    100.00% |           0      0.00%    100.00% |           0      0.00%    100.00% |           0      0.00%    100.00% |           0      0.00%    100.00% |           0      0.00%    100.00%
system.ruby.IFETCH.L1Cache.miss_type_mach_latency_hist::total        86007                      
system.ruby.IFETCH.L2Cache.miss_type_mach_latency_hist::bucket_size            2                      
system.ruby.IFETCH.L2Cache.miss_type_mach_latency_hist::max_bucket           19                      
system.ruby.IFETCH.L2Cache.miss_type_mach_latency_hist::samples           54                      
system.ruby.IFETCH.L2Cache.miss_type_mach_latency_hist::mean           19                      
system.ruby.IFETCH.L2Cache.miss_type_mach_latency_hist::gmean    19.000000                      
system.ruby.IFETCH.L2Cache.miss_type_mach_latency_hist |           0      0.00%      0.00% |           0      0.00%      0.00% |           0      0.00%      0.00% |           0      0.00%      0.00% |           0      0.00%      0.00% |           0      0.00%      0.00% |           0      0.00%      0.00% |           0      0.00%      0.00% |           0      0.00%      0.00% |          54    100.00%    100.00%
system.ruby.IFETCH.L2Cache.miss_type_mach_latency_hist::total           54                      
system.ruby.IFETCH.Directory.hit_type_mach_latency_hist::bucket_size          128                      
system.ruby.IFETCH.Directory.hit_type_mach_latency_hist::max_bucket         1279                      
system.ruby.IFETCH.Directory.hit_type_mach_latency_hist::samples         1034                      
system.ruby.IFETCH.Directory.hit_type_mach_latency_hist::mean   254.218569                      
system.ruby.IFETCH.Directory.hit_type_mach_latency_hist::gmean   250.716467                      
system.ruby.IFETCH.Directory.hit_type_mach_latency_hist::stdev    57.514968                      
system.ruby.IFETCH.Directory.hit_type_mach_latency_hist |           0      0.00%      0.00% |         790     76.40%     76.40% |         224     21.66%     98.07% |           3      0.29%     98.36% |           7      0.68%     99.03% |           9      0.87%     99.90% |           1      0.10%    100.00% |           0      0.00%    100.00% |           0      0.00%    100.00% |           0      0.00%    100.00%
system.ruby.IFETCH.Directory.hit_type_mach_latency_hist::total         1034                      
system.ruby.RMW_Read.L1Cache.miss_type_mach_latency_hist::bucket_size            1                      
system.ruby.RMW_Read.L1Cache.miss_type_mach_latency_hist::max_bucket            9                      
system.ruby.RMW_Read.L1Cache.miss_type_mach_latency_hist::samples          337                      
system.ruby.RMW_Read.L1Cache.miss_type_mach_latency_hist::mean            1                      
system.ruby.RMW_Read.L1Cache.miss_type_mach_latency_hist::gmean            1                      
system.ruby.RMW_Read.L1Cache.miss_type_mach_latency_hist |           0      0.00%      0.00% |         337    100.00%    100.00% |           0      0.00%    100.00% |           0      0.00%    100.00% |           0      0.00%    100.00% |           0      0.00%    100.00% |           0      0.00%    100.00% |           0      0.00%    100.00% |           0      0.00%    100.00% |           0      0.00%    100.00%
system.ruby.RMW_Read.L1Cache.miss_type_mach_latency_hist::total          337                      
system.ruby.RMW_Read.Directory.hit_type_mach_latency_hist::bucket_size           32                      
system.ruby.RMW_Read.Directory.hit_type_mach_latency_hist::max_bucket          319                      
system.ruby.RMW_Read.Directory.hit_type_mach_latency_hist::samples            4                      
system.ruby.RMW_Read.Directory.hit_type_mach_latency_hist::mean   266.500000                      
system.ruby.RMW_Read.Directory.hit_type_mach_latency_hist::gmean   265.077347                      
system.ruby.RMW_Read.Directory.hit_type_mach_latency_hist::stdev    31.754265                      
system.ruby.RMW_Read.Directory.hit_type_mach_latency_hist |           0      0.00%      0.00% |           0      0.00%      0.00% |           0      0.00%      0.00% |           0      0.00%      0.00% |           0      0.00%      0.00% |           0      0.00%      0.00% |           0      0.00%      0.00% |           2     50.00%     50.00% |           0      0.00%     50.00% |           2     50.00%    100.00%
system.ruby.RMW_Read.Directory.hit_type_mach_latency_hist::total            4                      
system.ruby.Locked_RMW_Read.L1Cache.miss_type_mach_latency_hist::bucket_size            1                      
system.ruby.Locked_RMW_Read.L1Cache.miss_type_mach_latency_hist::max_bucket            9                      
system.ruby.Locked_RMW_Read.L1Cache.miss_type_mach_latency_hist::samples           10                      
system.ruby.Locked_RMW_Read.L1Cache.miss_type_mach_latency_hist::mean            1                      
system.ruby.Locked_RMW_Read.L1Cache.miss_type_mach_latency_hist::gmean            1                      
system.ruby.Locked_RMW_Read.L1Cache.miss_type_mach_latency_hist |           0      0.00%      0.00% |          10    100.00%    100.00% |           0      0.00%    100.00% |           0      0.00%    100.00% |           0      0.00%    100.00% |           0      0.00%    100.00% |           0      0.00%    100.00% |           0      0.00%    100.00% |           0      0.00%    100.00% |           0      0.00%    100.00%
system.ruby.Locked_RMW_Read.L1Cache.miss_type_mach_latency_hist::total           10                      
system.ruby.Locked_RMW_Write.L1Cache.miss_type_mach_latency_hist::bucket_size            1                      
system.ruby.Locked_RMW_Write.L1Cache.miss_type_mach_latency_hist::max_bucket            9                      
system.ruby.Locked_RMW_Write.L1Cache.miss_type_mach_latency_hist::samples           10                      
system.ruby.Locked_RMW_Write.L1Cache.miss_type_mach_latency_hist::mean            1                      
system.ruby.Locked_RMW_Write.L1Cache.miss_type_mach_latency_hist::gmean            1                      
system.ruby.Locked_RMW_Write.L1Cache.miss_type_mach_latency_hist |           0      0.00%      0.00% |          10    100.00%    100.00% |           0      0.00%    100.00% |           0      0.00%    100.00% |           0      0.00%    100.00% |           0      0.00%    100.00% |           0      0.00%    100.00% |           0      0.00%    100.00% |           0      0.00%    100.00% |           0      0.00%    100.00%
system.ruby.Locked_RMW_Write.L1Cache.miss_type_mach_latency_hist::total           10                      
system.ruby.CorePair_Controller.C0_Load_L1miss          180      0.00%      0.00%
system.ruby.CorePair_Controller.C0_Load_L1hit        16155      0.00%      0.00%
system.ruby.CorePair_Controller.Ifetch0_L1hit        86007      0.00%      0.00%
system.ruby.CorePair_Controller.Ifetch0_L1miss         1088      0.00%      0.00%
system.ruby.CorePair_Controller.C0_Store_L1miss          325      0.00%      0.00%
system.ruby.CorePair_Controller.C0_Store_L1hit        10448      0.00%      0.00%
system.ruby.CorePair_Controller.NB_AckS          1034      0.00%      0.00%
system.ruby.CorePair_Controller.NB_AckM           326      0.00%      0.00%
system.ruby.CorePair_Controller.NB_AckE           175      0.00%      0.00%
system.ruby.CorePair_Controller.L1I_Repl          589      0.00%      0.00%
system.ruby.CorePair_Controller.L1D0_Repl           24      0.00%      0.00%
system.ruby.CorePair_Controller.L2_to_L1D0            5      0.00%      0.00%
system.ruby.CorePair_Controller.L2_to_L1I           54      0.00%      0.00%
system.ruby.CorePair_Controller.PrbInvData           18      0.00%      0.00%
system.ruby.CorePair_Controller.PrbShrData            7      0.00%      0.00%
system.ruby.CorePair_Controller.I.C0_Load_L1miss          175      0.00%      0.00%
system.ruby.CorePair_Controller.I.Ifetch0_L1miss         1034      0.00%      0.00%
system.ruby.CorePair_Controller.I.C0_Store_L1miss          325      0.00%      0.00%
system.ruby.CorePair_Controller.I.PrbInvData           17      0.00%      0.00%
system.ruby.CorePair_Controller.I.PrbShrData            5      0.00%      0.00%
system.ruby.CorePair_Controller.S.Ifetch0_L1hit        86007      0.00%      0.00%
system.ruby.CorePair_Controller.S.Ifetch0_L1miss           54      0.00%      0.00%
system.ruby.CorePair_Controller.S.L1I_Repl          589      0.00%      0.00%
system.ruby.CorePair_Controller.E0.C0_Load_L1miss            2      0.00%      0.00%
system.ruby.CorePair_Controller.E0.C0_Load_L1hit         3356      0.00%      0.00%
system.ruby.CorePair_Controller.E0.C0_Store_L1hit           46      0.00%      0.00%
system.ruby.CorePair_Controller.E0.L1D0_Repl           16      0.00%      0.00%
system.ruby.CorePair_Controller.E0.PrbShrData            1      0.00%      0.00%
system.ruby.CorePair_Controller.O.C0_Load_L1hit            3      0.00%      0.00%
system.ruby.CorePair_Controller.O.C0_Store_L1hit            1      0.00%      0.00%
system.ruby.CorePair_Controller.M0.C0_Load_L1miss            3      0.00%      0.00%
system.ruby.CorePair_Controller.M0.C0_Load_L1hit        12796      0.00%      0.00%
system.ruby.CorePair_Controller.M0.C0_Store_L1hit        10401      0.00%      0.00%
system.ruby.CorePair_Controller.M0.L1D0_Repl            8      0.00%      0.00%
system.ruby.CorePair_Controller.M0.PrbInvData            1      0.00%      0.00%
system.ruby.CorePair_Controller.M0.PrbShrData            1      0.00%      0.00%
system.ruby.CorePair_Controller.I_M0.NB_AckM          325      0.00%      0.00%
system.ruby.CorePair_Controller.I_E0S.NB_AckE          175      0.00%      0.00%
system.ruby.CorePair_Controller.Si_F0.L2_to_L1I           54      0.00%      0.00%
system.ruby.CorePair_Controller.O_M0.NB_AckM            1      0.00%      0.00%
system.ruby.CorePair_Controller.S0.NB_AckS         1034      0.00%      0.00%
system.ruby.CorePair_Controller.E0_F.L2_to_L1D0            2      0.00%      0.00%
system.ruby.CorePair_Controller.M0_F.L2_to_L1D0            3      0.00%      0.00%
system.ruby.Directory_Controller.RdBlkS          1034      0.00%      0.00%
system.ruby.Directory_Controller.RdBlkM           326      0.00%      0.00%
system.ruby.Directory_Controller.RdBlk            182      0.00%      0.00%
system.ruby.Directory_Controller.WriteThrough           16      0.00%      0.00%
system.ruby.Directory_Controller.Atomic             3      0.00%      0.00%
system.ruby.Directory_Controller.CPUPrbResp         1560      0.00%      0.00%
system.ruby.Directory_Controller.ProbeAcksComplete         1560      0.00%      0.00%
system.ruby.Directory_Controller.MemData         1560      0.00%      0.00%
system.ruby.Directory_Controller.CoreUnblock         1541      0.00%      0.00%
system.ruby.Directory_Controller.UnblockWriteThrough           18      0.00%      0.00%
system.ruby.Directory_Controller.U.RdBlkS         1034      0.00%      0.00%
system.ruby.Directory_Controller.U.RdBlkM          326      0.00%      0.00%
system.ruby.Directory_Controller.U.RdBlk          182      0.00%      0.00%
system.ruby.Directory_Controller.U.WriteThrough           16      0.00%      0.00%
system.ruby.Directory_Controller.U.Atomic            2      0.00%      0.00%
system.ruby.Directory_Controller.BS_M.MemData         1034      0.00%      0.00%
system.ruby.Directory_Controller.BM_M.MemData          326      0.00%      0.00%
system.ruby.Directory_Controller.B_M.MemData          175      0.00%      0.00%
system.ruby.Directory_Controller.BS_PM.CPUPrbResp         1034      0.00%      0.00%
system.ruby.Directory_Controller.BS_PM.ProbeAcksComplete         1034      0.00%      0.00%
system.ruby.Directory_Controller.BM_PM.Atomic            1      0.00%      0.00%
system.ruby.Directory_Controller.BM_PM.CPUPrbResp          326      0.00%      0.00%
system.ruby.Directory_Controller.BM_PM.ProbeAcksComplete          326      0.00%      0.00%
system.ruby.Directory_Controller.BM_PM.MemData           18      0.00%      0.00%
system.ruby.Directory_Controller.B_PM.CPUPrbResp          175      0.00%      0.00%
system.ruby.Directory_Controller.B_PM.ProbeAcksComplete          175      0.00%      0.00%
system.ruby.Directory_Controller.B_PM.MemData            7      0.00%      0.00%
system.ruby.Directory_Controller.BM_Pm.CPUPrbResp           18      0.00%      0.00%
system.ruby.Directory_Controller.BM_Pm.ProbeAcksComplete           18      0.00%      0.00%
system.ruby.Directory_Controller.B_Pm.CPUPrbResp            7      0.00%      0.00%
system.ruby.Directory_Controller.B_Pm.ProbeAcksComplete            7      0.00%      0.00%
system.ruby.Directory_Controller.B.CoreUnblock         1541      0.00%      0.00%
system.ruby.Directory_Controller.B.UnblockWriteThrough           18      0.00%      0.00%
system.ruby.SQC_Controller.Fetch                   86      0.00%      0.00%
system.ruby.SQC_Controller.Data                     5      0.00%      0.00%
system.ruby.SQC_Controller.I.Fetch                  5      0.00%      0.00%
system.ruby.SQC_Controller.I.Data                   5      0.00%      0.00%
system.ruby.SQC_Controller.V.Fetch                 81      0.00%      0.00%
system.ruby.TCC_Controller.RdBlk                    9      0.00%      0.00%
system.ruby.TCC_Controller.WrVicBlk                16      0.00%      0.00%
system.ruby.TCC_Controller.Atomic                   2      0.00%      0.00%
system.ruby.TCC_Controller.AtomicDone               1      0.00%      0.00%
system.ruby.TCC_Controller.Data                     9      0.00%      0.00%
system.ruby.TCC_Controller.PrbInv                1535      0.00%      0.00%
system.ruby.TCC_Controller.WBAck                   16      0.00%      0.00%
system.ruby.TCC_Controller.V.PrbInv                 1      0.00%      0.00%
system.ruby.TCC_Controller.I.RdBlk                  7      0.00%      0.00%
system.ruby.TCC_Controller.I.WrVicBlk              16      0.00%      0.00%
system.ruby.TCC_Controller.I.Atomic                 1      0.00%      0.00%
system.ruby.TCC_Controller.I.PrbInv              1534      0.00%      0.00%
system.ruby.TCC_Controller.I.WBAck                 16      0.00%      0.00%
system.ruby.TCC_Controller.IV.RdBlk                 2      0.00%      0.00%
system.ruby.TCC_Controller.IV.Data                  7      0.00%      0.00%
system.ruby.TCC_Controller.A.Atomic                 1      0.00%      0.00%
system.ruby.TCC_Controller.A.AtomicDone             1      0.00%      0.00%
system.ruby.TCC_Controller.A.Data                   2      0.00%      0.00%
system.ruby.TCP_Controller.Load          |           5     50.00%     50.00% |           5     50.00%    100.00%
system.ruby.TCP_Controller.Load::total             10                      
system.ruby.TCP_Controller.StoreThrough  |           8     50.00%     50.00% |           8     50.00%    100.00%
system.ruby.TCP_Controller.StoreThrough::total           16                      
system.ruby.TCP_Controller.Atomic        |           1     50.00%     50.00% |           1     50.00%    100.00%
system.ruby.TCP_Controller.Atomic::total            2                      
system.ruby.TCP_Controller.Flush         |         768     50.00%     50.00% |         768     50.00%    100.00%
system.ruby.TCP_Controller.Flush::total          1536                      
system.ruby.TCP_Controller.Evict         |         512     50.00%     50.00% |         512     50.00%    100.00%
system.ruby.TCP_Controller.Evict::total          1024                      
system.ruby.TCP_Controller.TCC_Ack       |           3     50.00%     50.00% |           3     50.00%    100.00%
system.ruby.TCP_Controller.TCC_Ack::total            6                      
system.ruby.TCP_Controller.TCC_AckWB     |           8     50.00%     50.00% |           8     50.00%    100.00%
system.ruby.TCP_Controller.TCC_AckWB::total           16                      
system.ruby.TCP_Controller.I.Load        |           2     50.00%     50.00% |           2     50.00%    100.00%
system.ruby.TCP_Controller.I.Load::total            4                      
system.ruby.TCP_Controller.I.StoreThrough |           8     50.00%     50.00% |           8     50.00%    100.00%
system.ruby.TCP_Controller.I.StoreThrough::total           16                      
system.ruby.TCP_Controller.I.Atomic      |           1     50.00%     50.00% |           1     50.00%    100.00%
system.ruby.TCP_Controller.I.Atomic::total            2                      
system.ruby.TCP_Controller.I.Flush       |         766     50.00%     50.00% |         766     50.00%    100.00%
system.ruby.TCP_Controller.I.Flush::total         1532                      
system.ruby.TCP_Controller.I.Evict       |         510     50.00%     50.00% |         510     50.00%    100.00%
system.ruby.TCP_Controller.I.Evict::total         1020                      
system.ruby.TCP_Controller.I.TCC_Ack     |           2     50.00%     50.00% |           2     50.00%    100.00%
system.ruby.TCP_Controller.I.TCC_Ack::total            4                      
system.ruby.TCP_Controller.I.TCC_AckWB   |           8     50.00%     50.00% |           8     50.00%    100.00%
system.ruby.TCP_Controller.I.TCC_AckWB::total           16                      
system.ruby.TCP_Controller.V.Load        |           3     50.00%     50.00% |           3     50.00%    100.00%
system.ruby.TCP_Controller.V.Load::total            6                      
system.ruby.TCP_Controller.V.Flush       |           2     50.00%     50.00% |           2     50.00%    100.00%
system.ruby.TCP_Controller.V.Flush::total            4                      
system.ruby.TCP_Controller.V.Evict       |           2     50.00%     50.00% |           2     50.00%    100.00%
system.ruby.TCP_Controller.V.Evict::total            4                      
system.ruby.TCP_Controller.A.TCC_Ack     |           1     50.00%     50.00% |           1     50.00%    100.00%
system.ruby.TCP_Controller.A.TCC_Ack::total            2                      

---------- End Simulation Statistics   ----------
