
---------- Begin Simulation Statistics ----------
sim_seconds                                  5.439527                       # Number of seconds simulated
sim_ticks                                5439526649000                       # Number of ticks simulated
final_tick                               7702749119500                       # Number of ticks from beginning of simulation (restored from checkpoints and never reset)
sim_freq                                 1000000000000                       # Frequency of simulated ticks
host_inst_rate                                1469375                       # Simulator instruction rate (inst/s)
host_op_rate                                  1469375                       # Simulator op (including micro ops) rate (op/s)
host_tick_rate                              889649878                       # Simulator tick rate (ticks/s)
host_mem_usage                                 722692                       # Number of bytes of host memory used
host_seconds                                  6114.23                       # Real time elapsed on the host
sim_insts                                  8984102354                       # Number of instructions simulated
sim_ops                                    8984102354                       # Number of ops (including micro ops) simulated
system.voltage_domain.voltage                       1                       # Voltage in Volts
system.clk_domain.clock                          1000                       # Clock period in ticks
system.mem_ctrls.bytes_read::cpu0.inst       41783552                       # Number of bytes read from this memory
system.mem_ctrls.bytes_read::cpu0.data       58540800                       # Number of bytes read from this memory
system.mem_ctrls.bytes_read::cpu1.inst       98398400                       # Number of bytes read from this memory
system.mem_ctrls.bytes_read::cpu1.data      122806976                       # Number of bytes read from this memory
system.mem_ctrls.bytes_read::cpu2.inst       94831616                       # Number of bytes read from this memory
system.mem_ctrls.bytes_read::cpu2.data      124246080                       # Number of bytes read from this memory
system.mem_ctrls.bytes_read::cpu3.inst       52332672                       # Number of bytes read from this memory
system.mem_ctrls.bytes_read::cpu3.data       40540032                       # Number of bytes read from this memory
system.mem_ctrls.bytes_read::tsunami.ide         4032                       # Number of bytes read from this memory
system.mem_ctrls.bytes_read::total          633484160                       # Number of bytes read from this memory
system.mem_ctrls.bytes_inst_read::cpu0.inst     41783552                       # Number of instructions bytes read from this memory
system.mem_ctrls.bytes_inst_read::cpu1.inst     98398400                       # Number of instructions bytes read from this memory
system.mem_ctrls.bytes_inst_read::cpu2.inst     94831616                       # Number of instructions bytes read from this memory
system.mem_ctrls.bytes_inst_read::cpu3.inst     52332672                       # Number of instructions bytes read from this memory
system.mem_ctrls.bytes_inst_read::total     287346240                       # Number of instructions bytes read from this memory
system.mem_ctrls.bytes_written::writebacks     86750848                       # Number of bytes written to this memory
system.mem_ctrls.bytes_written::total        86750848                       # Number of bytes written to this memory
system.mem_ctrls.num_reads::cpu0.inst          652868                       # Number of read requests responded to by this memory
system.mem_ctrls.num_reads::cpu0.data          914700                       # Number of read requests responded to by this memory
system.mem_ctrls.num_reads::cpu1.inst         1537475                       # Number of read requests responded to by this memory
system.mem_ctrls.num_reads::cpu1.data         1918859                       # Number of read requests responded to by this memory
system.mem_ctrls.num_reads::cpu2.inst         1481744                       # Number of read requests responded to by this memory
system.mem_ctrls.num_reads::cpu2.data         1941345                       # Number of read requests responded to by this memory
system.mem_ctrls.num_reads::cpu3.inst          817698                       # Number of read requests responded to by this memory
system.mem_ctrls.num_reads::cpu3.data          633438                       # Number of read requests responded to by this memory
system.mem_ctrls.num_reads::tsunami.ide            63                       # Number of read requests responded to by this memory
system.mem_ctrls.num_reads::total             9898190                       # Number of read requests responded to by this memory
system.mem_ctrls.num_writes::writebacks       1355482                       # Number of write requests responded to by this memory
system.mem_ctrls.num_writes::total            1355482                       # Number of write requests responded to by this memory
system.mem_ctrls.bw_read::cpu0.inst           7681468                       # Total read bandwidth from this memory (bytes/s)
system.mem_ctrls.bw_read::cpu0.data          10762113                       # Total read bandwidth from this memory (bytes/s)
system.mem_ctrls.bw_read::cpu1.inst          18089515                       # Total read bandwidth from this memory (bytes/s)
system.mem_ctrls.bw_read::cpu1.data          22576776                       # Total read bandwidth from this memory (bytes/s)
system.mem_ctrls.bw_read::cpu2.inst          17433799                       # Total read bandwidth from this memory (bytes/s)
system.mem_ctrls.bw_read::cpu2.data          22841340                       # Total read bandwidth from this memory (bytes/s)
system.mem_ctrls.bw_read::cpu3.inst           9620814                       # Total read bandwidth from this memory (bytes/s)
system.mem_ctrls.bw_read::cpu3.data           7452860                       # Total read bandwidth from this memory (bytes/s)
system.mem_ctrls.bw_read::tsunami.ide             741                       # Total read bandwidth from this memory (bytes/s)
system.mem_ctrls.bw_read::total             116459428                       # Total read bandwidth from this memory (bytes/s)
system.mem_ctrls.bw_inst_read::cpu0.inst      7681468                       # Instruction read bandwidth from this memory (bytes/s)
system.mem_ctrls.bw_inst_read::cpu1.inst     18089515                       # Instruction read bandwidth from this memory (bytes/s)
system.mem_ctrls.bw_inst_read::cpu2.inst     17433799                       # Instruction read bandwidth from this memory (bytes/s)
system.mem_ctrls.bw_inst_read::cpu3.inst      9620814                       # Instruction read bandwidth from this memory (bytes/s)
system.mem_ctrls.bw_inst_read::total         52825597                       # Instruction read bandwidth from this memory (bytes/s)
system.mem_ctrls.bw_write::writebacks        15948235                       # Write bandwidth from this memory (bytes/s)
system.mem_ctrls.bw_write::total             15948235                       # Write bandwidth from this memory (bytes/s)
system.mem_ctrls.bw_total::writebacks        15948235                       # Total bandwidth to/from this memory (bytes/s)
system.mem_ctrls.bw_total::cpu0.inst          7681468                       # Total bandwidth to/from this memory (bytes/s)
system.mem_ctrls.bw_total::cpu0.data         10762113                       # Total bandwidth to/from this memory (bytes/s)
system.mem_ctrls.bw_total::cpu1.inst         18089515                       # Total bandwidth to/from this memory (bytes/s)
system.mem_ctrls.bw_total::cpu1.data         22576776                       # Total bandwidth to/from this memory (bytes/s)
system.mem_ctrls.bw_total::cpu2.inst         17433799                       # Total bandwidth to/from this memory (bytes/s)
system.mem_ctrls.bw_total::cpu2.data         22841340                       # Total bandwidth to/from this memory (bytes/s)
system.mem_ctrls.bw_total::cpu3.inst          9620814                       # Total bandwidth to/from this memory (bytes/s)
system.mem_ctrls.bw_total::cpu3.data          7452860                       # Total bandwidth to/from this memory (bytes/s)
system.mem_ctrls.bw_total::tsunami.ide            741                       # Total bandwidth to/from this memory (bytes/s)
system.mem_ctrls.bw_total::total            132407662                       # Total bandwidth to/from this memory (bytes/s)
system.mem_ctrls.readReqs                     9898190                       # Number of read requests accepted
system.mem_ctrls.writeReqs                    1355482                       # Number of write requests accepted
system.mem_ctrls.readBursts                   9898190                       # Number of DRAM read bursts, including those serviced by the write queue
system.mem_ctrls.writeBursts                  1355482                       # Number of DRAM write bursts, including those merged in the write queue
system.mem_ctrls.bytesReadDRAM              628122048                       # Total number of bytes read from DRAM
system.mem_ctrls.bytesReadWrQ                 5362112                       # Total number of bytes read from write queue
system.mem_ctrls.bytesWritten                86720320                       # Total number of bytes written to DRAM
system.mem_ctrls.bytesReadSys               633484160                       # Total read bytes from the system interface side
system.mem_ctrls.bytesWrittenSys             86750848                       # Total written bytes from the system interface side
system.mem_ctrls.servicedByWrQ                  83783                       # Number of DRAM read bursts serviced by the write queue
system.mem_ctrls.mergedWrBursts                   446                       # Number of DRAM write bursts merged with an existing one
system.mem_ctrls.neitherReadNorWriteReqs        60287                       # Number of requests that are neither read nor write
system.mem_ctrls.perBankRdBursts::0            514763                       # Per bank write bursts
system.mem_ctrls.perBankRdBursts::1            872727                       # Per bank write bursts
system.mem_ctrls.perBankRdBursts::2            578198                       # Per bank write bursts
system.mem_ctrls.perBankRdBursts::3            772711                       # Per bank write bursts
system.mem_ctrls.perBankRdBursts::4            542823                       # Per bank write bursts
system.mem_ctrls.perBankRdBursts::5            650233                       # Per bank write bursts
system.mem_ctrls.perBankRdBursts::6            462310                       # Per bank write bursts
system.mem_ctrls.perBankRdBursts::7            810193                       # Per bank write bursts
system.mem_ctrls.perBankRdBursts::8            636751                       # Per bank write bursts
system.mem_ctrls.perBankRdBursts::9            775706                       # Per bank write bursts
system.mem_ctrls.perBankRdBursts::10           632724                       # Per bank write bursts
system.mem_ctrls.perBankRdBursts::11           536711                       # Per bank write bursts
system.mem_ctrls.perBankRdBursts::12           397711                       # Per bank write bursts
system.mem_ctrls.perBankRdBursts::13           699778                       # Per bank write bursts
system.mem_ctrls.perBankRdBursts::14           312102                       # Per bank write bursts
system.mem_ctrls.perBankRdBursts::15           618966                       # Per bank write bursts
system.mem_ctrls.perBankWrBursts::0             59735                       # Per bank write bursts
system.mem_ctrls.perBankWrBursts::1             84891                       # Per bank write bursts
system.mem_ctrls.perBankWrBursts::2             83947                       # Per bank write bursts
system.mem_ctrls.perBankWrBursts::3            180805                       # Per bank write bursts
system.mem_ctrls.perBankWrBursts::4            121438                       # Per bank write bursts
system.mem_ctrls.perBankWrBursts::5            127545                       # Per bank write bursts
system.mem_ctrls.perBankWrBursts::6             98759                       # Per bank write bursts
system.mem_ctrls.perBankWrBursts::7             88388                       # Per bank write bursts
system.mem_ctrls.perBankWrBursts::8             45937                       # Per bank write bursts
system.mem_ctrls.perBankWrBursts::9             47282                       # Per bank write bursts
system.mem_ctrls.perBankWrBursts::10            74593                       # Per bank write bursts
system.mem_ctrls.perBankWrBursts::11            99399                       # Per bank write bursts
system.mem_ctrls.perBankWrBursts::12            53176                       # Per bank write bursts
system.mem_ctrls.perBankWrBursts::13            62890                       # Per bank write bursts
system.mem_ctrls.perBankWrBursts::14            53144                       # Per bank write bursts
system.mem_ctrls.perBankWrBursts::15            73076                       # Per bank write bursts
system.mem_ctrls.numRdRetry                         0                       # Number of times read queue was full causing retry
system.mem_ctrls.numWrRetry                       101                       # Number of times write queue was full causing retry
system.mem_ctrls.totGap                  5439526577500                       # Total gap between requests
system.mem_ctrls.readPktSize::0                     0                       # Read request sizes (log2)
system.mem_ctrls.readPktSize::1                     0                       # Read request sizes (log2)
system.mem_ctrls.readPktSize::2                     0                       # Read request sizes (log2)
system.mem_ctrls.readPktSize::3                     0                       # Read request sizes (log2)
system.mem_ctrls.readPktSize::4                     0                       # Read request sizes (log2)
system.mem_ctrls.readPktSize::5                     0                       # Read request sizes (log2)
system.mem_ctrls.readPktSize::6               9898190                       # Read request sizes (log2)
system.mem_ctrls.writePktSize::0                    0                       # Write request sizes (log2)
system.mem_ctrls.writePktSize::1                    0                       # Write request sizes (log2)
system.mem_ctrls.writePktSize::2                    0                       # Write request sizes (log2)
system.mem_ctrls.writePktSize::3                    0                       # Write request sizes (log2)
system.mem_ctrls.writePktSize::4                    0                       # Write request sizes (log2)
system.mem_ctrls.writePktSize::5                    0                       # Write request sizes (log2)
system.mem_ctrls.writePktSize::6              1355482                       # Write request sizes (log2)
system.mem_ctrls.rdQLenPdf::0                 9309144                       # What read queue length does an incoming req see
system.mem_ctrls.rdQLenPdf::1                  466266                       # What read queue length does an incoming req see
system.mem_ctrls.rdQLenPdf::2                   35566                       # What read queue length does an incoming req see
system.mem_ctrls.rdQLenPdf::3                    3380                       # What read queue length does an incoming req see
system.mem_ctrls.rdQLenPdf::4                       4                       # What read queue length does an incoming req see
system.mem_ctrls.rdQLenPdf::5                       4                       # What read queue length does an incoming req see
system.mem_ctrls.rdQLenPdf::6                       4                       # What read queue length does an incoming req see
system.mem_ctrls.rdQLenPdf::7                       3                       # What read queue length does an incoming req see
system.mem_ctrls.rdQLenPdf::8                       3                       # What read queue length does an incoming req see
system.mem_ctrls.rdQLenPdf::9                       7                       # What read queue length does an incoming req see
system.mem_ctrls.rdQLenPdf::10                      7                       # What read queue length does an incoming req see
system.mem_ctrls.rdQLenPdf::11                      2                       # What read queue length does an incoming req see
system.mem_ctrls.rdQLenPdf::12                      2                       # What read queue length does an incoming req see
system.mem_ctrls.rdQLenPdf::13                      2                       # What read queue length does an incoming req see
system.mem_ctrls.rdQLenPdf::14                      2                       # What read queue length does an incoming req see
system.mem_ctrls.rdQLenPdf::15                      2                       # What read queue length does an incoming req see
system.mem_ctrls.rdQLenPdf::16                      2                       # What read queue length does an incoming req see
system.mem_ctrls.rdQLenPdf::17                      2                       # What read queue length does an incoming req see
system.mem_ctrls.rdQLenPdf::18                      2                       # What read queue length does an incoming req see
system.mem_ctrls.rdQLenPdf::19                      2                       # What read queue length does an incoming req see
system.mem_ctrls.rdQLenPdf::20                      1                       # What read queue length does an incoming req see
system.mem_ctrls.rdQLenPdf::21                      0                       # What read queue length does an incoming req see
system.mem_ctrls.rdQLenPdf::22                      0                       # What read queue length does an incoming req see
system.mem_ctrls.rdQLenPdf::23                      0                       # What read queue length does an incoming req see
system.mem_ctrls.rdQLenPdf::24                      0                       # What read queue length does an incoming req see
system.mem_ctrls.rdQLenPdf::25                      0                       # What read queue length does an incoming req see
system.mem_ctrls.rdQLenPdf::26                      0                       # What read queue length does an incoming req see
system.mem_ctrls.rdQLenPdf::27                      0                       # What read queue length does an incoming req see
system.mem_ctrls.rdQLenPdf::28                      0                       # What read queue length does an incoming req see
system.mem_ctrls.rdQLenPdf::29                      0                       # What read queue length does an incoming req see
system.mem_ctrls.rdQLenPdf::30                      0                       # What read queue length does an incoming req see
system.mem_ctrls.rdQLenPdf::31                      0                       # What read queue length does an incoming req see
system.mem_ctrls.wrQLenPdf::0                       1                       # What write queue length does an incoming req see
system.mem_ctrls.wrQLenPdf::1                       1                       # What write queue length does an incoming req see
system.mem_ctrls.wrQLenPdf::2                       1                       # What write queue length does an incoming req see
system.mem_ctrls.wrQLenPdf::3                       1                       # What write queue length does an incoming req see
system.mem_ctrls.wrQLenPdf::4                       1                       # What write queue length does an incoming req see
system.mem_ctrls.wrQLenPdf::5                       1                       # What write queue length does an incoming req see
system.mem_ctrls.wrQLenPdf::6                       1                       # What write queue length does an incoming req see
system.mem_ctrls.wrQLenPdf::7                       1                       # What write queue length does an incoming req see
system.mem_ctrls.wrQLenPdf::8                       1                       # What write queue length does an incoming req see
system.mem_ctrls.wrQLenPdf::9                       1                       # What write queue length does an incoming req see
system.mem_ctrls.wrQLenPdf::10                      1                       # What write queue length does an incoming req see
system.mem_ctrls.wrQLenPdf::11                      1                       # What write queue length does an incoming req see
system.mem_ctrls.wrQLenPdf::12                      1                       # What write queue length does an incoming req see
system.mem_ctrls.wrQLenPdf::13                      1                       # What write queue length does an incoming req see
system.mem_ctrls.wrQLenPdf::14                      1                       # What write queue length does an incoming req see
system.mem_ctrls.wrQLenPdf::15                  31143                       # What write queue length does an incoming req see
system.mem_ctrls.wrQLenPdf::16                  32826                       # What write queue length does an incoming req see
system.mem_ctrls.wrQLenPdf::17                  74553                       # What write queue length does an incoming req see
system.mem_ctrls.wrQLenPdf::18                  77785                       # What write queue length does an incoming req see
system.mem_ctrls.wrQLenPdf::19                  78165                       # What write queue length does an incoming req see
system.mem_ctrls.wrQLenPdf::20                  78300                       # What write queue length does an incoming req see
system.mem_ctrls.wrQLenPdf::21                  78478                       # What write queue length does an incoming req see
system.mem_ctrls.wrQLenPdf::22                  78747                       # What write queue length does an incoming req see
system.mem_ctrls.wrQLenPdf::23                  79066                       # What write queue length does an incoming req see
system.mem_ctrls.wrQLenPdf::24                  79280                       # What write queue length does an incoming req see
system.mem_ctrls.wrQLenPdf::25                  80022                       # What write queue length does an incoming req see
system.mem_ctrls.wrQLenPdf::26                  80801                       # What write queue length does an incoming req see
system.mem_ctrls.wrQLenPdf::27                  80817                       # What write queue length does an incoming req see
system.mem_ctrls.wrQLenPdf::28                  80872                       # What write queue length does an incoming req see
system.mem_ctrls.wrQLenPdf::29                  80684                       # What write queue length does an incoming req see
system.mem_ctrls.wrQLenPdf::30                  80402                       # What write queue length does an incoming req see
system.mem_ctrls.wrQLenPdf::31                  80577                       # What write queue length does an incoming req see
system.mem_ctrls.wrQLenPdf::32                  80868                       # What write queue length does an incoming req see
system.mem_ctrls.wrQLenPdf::33                   2032                       # What write queue length does an incoming req see
system.mem_ctrls.wrQLenPdf::34                   1813                       # What write queue length does an incoming req see
system.mem_ctrls.wrQLenPdf::35                   1587                       # What write queue length does an incoming req see
system.mem_ctrls.wrQLenPdf::36                   1364                       # What write queue length does an incoming req see
system.mem_ctrls.wrQLenPdf::37                   1256                       # What write queue length does an incoming req see
system.mem_ctrls.wrQLenPdf::38                   1104                       # What write queue length does an incoming req see
system.mem_ctrls.wrQLenPdf::39                   1009                       # What write queue length does an incoming req see
system.mem_ctrls.wrQLenPdf::40                    904                       # What write queue length does an incoming req see
system.mem_ctrls.wrQLenPdf::41                    822                       # What write queue length does an incoming req see
system.mem_ctrls.wrQLenPdf::42                    695                       # What write queue length does an incoming req see
system.mem_ctrls.wrQLenPdf::43                    671                       # What write queue length does an incoming req see
system.mem_ctrls.wrQLenPdf::44                    617                       # What write queue length does an incoming req see
system.mem_ctrls.wrQLenPdf::45                    601                       # What write queue length does an incoming req see
system.mem_ctrls.wrQLenPdf::46                    565                       # What write queue length does an incoming req see
system.mem_ctrls.wrQLenPdf::47                    500                       # What write queue length does an incoming req see
system.mem_ctrls.wrQLenPdf::48                    507                       # What write queue length does an incoming req see
system.mem_ctrls.wrQLenPdf::49                    438                       # What write queue length does an incoming req see
system.mem_ctrls.wrQLenPdf::50                    425                       # What write queue length does an incoming req see
system.mem_ctrls.wrQLenPdf::51                    432                       # What write queue length does an incoming req see
system.mem_ctrls.wrQLenPdf::52                    449                       # What write queue length does an incoming req see
system.mem_ctrls.wrQLenPdf::53                    325                       # What write queue length does an incoming req see
system.mem_ctrls.wrQLenPdf::54                    376                       # What write queue length does an incoming req see
system.mem_ctrls.wrQLenPdf::55                    355                       # What write queue length does an incoming req see
system.mem_ctrls.wrQLenPdf::56                    326                       # What write queue length does an incoming req see
system.mem_ctrls.wrQLenPdf::57                    282                       # What write queue length does an incoming req see
system.mem_ctrls.wrQLenPdf::58                    449                       # What write queue length does an incoming req see
system.mem_ctrls.wrQLenPdf::59                    406                       # What write queue length does an incoming req see
system.mem_ctrls.wrQLenPdf::60                    368                       # What write queue length does an incoming req see
system.mem_ctrls.wrQLenPdf::61                    325                       # What write queue length does an incoming req see
system.mem_ctrls.wrQLenPdf::62                    250                       # What write queue length does an incoming req see
system.mem_ctrls.wrQLenPdf::63                    382                       # What write queue length does an incoming req see
system.mem_ctrls.bytesPerActivate::samples      3629226                       # Bytes accessed per row activation
system.mem_ctrls.bytesPerActivate::mean    196.967741                       # Bytes accessed per row activation
system.mem_ctrls.bytesPerActivate::gmean   131.367303                       # Bytes accessed per row activation
system.mem_ctrls.bytesPerActivate::stdev   218.594929                       # Bytes accessed per row activation
system.mem_ctrls.bytesPerActivate::0-127      1703879     46.95%     46.95% # Bytes accessed per row activation
system.mem_ctrls.bytesPerActivate::128-255      1001658     27.60%     74.55% # Bytes accessed per row activation
system.mem_ctrls.bytesPerActivate::256-383       371584     10.24%     84.79% # Bytes accessed per row activation
system.mem_ctrls.bytesPerActivate::384-511       192011      5.29%     90.08% # Bytes accessed per row activation
system.mem_ctrls.bytesPerActivate::512-639       119097      3.28%     93.36% # Bytes accessed per row activation
system.mem_ctrls.bytesPerActivate::640-767        71970      1.98%     95.34% # Bytes accessed per row activation
system.mem_ctrls.bytesPerActivate::768-895        42555      1.17%     96.52% # Bytes accessed per row activation
system.mem_ctrls.bytesPerActivate::896-1023        23508      0.65%     97.16% # Bytes accessed per row activation
system.mem_ctrls.bytesPerActivate::1024-1151       102964      2.84%    100.00% # Bytes accessed per row activation
system.mem_ctrls.bytesPerActivate::total      3629226                       # Bytes accessed per row activation
system.mem_ctrls.rdPerTurnAround::samples        80081                       # Reads before turning the bus around for writes
system.mem_ctrls.rdPerTurnAround::mean     122.555225                       # Reads before turning the bus around for writes
system.mem_ctrls.rdPerTurnAround::stdev    105.635536                       # Reads before turning the bus around for writes
system.mem_ctrls.rdPerTurnAround::0-63          25315     31.61%     31.61% # Reads before turning the bus around for writes
system.mem_ctrls.rdPerTurnAround::64-127        25856     32.29%     63.90% # Reads before turning the bus around for writes
system.mem_ctrls.rdPerTurnAround::128-191        14802     18.48%     82.38% # Reads before turning the bus around for writes
system.mem_ctrls.rdPerTurnAround::192-255         7461      9.32%     91.70% # Reads before turning the bus around for writes
system.mem_ctrls.rdPerTurnAround::256-319         3302      4.12%     95.82% # Reads before turning the bus around for writes
system.mem_ctrls.rdPerTurnAround::320-383         1432      1.79%     97.61% # Reads before turning the bus around for writes
system.mem_ctrls.rdPerTurnAround::384-447          662      0.83%     98.44% # Reads before turning the bus around for writes
system.mem_ctrls.rdPerTurnAround::448-511          389      0.49%     98.92% # Reads before turning the bus around for writes
system.mem_ctrls.rdPerTurnAround::512-575          238      0.30%     99.22% # Reads before turning the bus around for writes
system.mem_ctrls.rdPerTurnAround::576-639          180      0.22%     99.45% # Reads before turning the bus around for writes
system.mem_ctrls.rdPerTurnAround::640-703          112      0.14%     99.59% # Reads before turning the bus around for writes
system.mem_ctrls.rdPerTurnAround::704-767           96      0.12%     99.71% # Reads before turning the bus around for writes
system.mem_ctrls.rdPerTurnAround::768-831           68      0.08%     99.79% # Reads before turning the bus around for writes
system.mem_ctrls.rdPerTurnAround::832-895           45      0.06%     99.85% # Reads before turning the bus around for writes
system.mem_ctrls.rdPerTurnAround::896-959           41      0.05%     99.90% # Reads before turning the bus around for writes
system.mem_ctrls.rdPerTurnAround::960-1023           28      0.03%     99.93% # Reads before turning the bus around for writes
system.mem_ctrls.rdPerTurnAround::1024-1087           20      0.02%     99.96% # Reads before turning the bus around for writes
system.mem_ctrls.rdPerTurnAround::1088-1151           10      0.01%     99.97% # Reads before turning the bus around for writes
system.mem_ctrls.rdPerTurnAround::1152-1215            8      0.01%     99.98% # Reads before turning the bus around for writes
system.mem_ctrls.rdPerTurnAround::1216-1279            5      0.01%     99.99% # Reads before turning the bus around for writes
system.mem_ctrls.rdPerTurnAround::1280-1343            4      0.00%     99.99% # Reads before turning the bus around for writes
system.mem_ctrls.rdPerTurnAround::1344-1407            4      0.00%    100.00% # Reads before turning the bus around for writes
system.mem_ctrls.rdPerTurnAround::1408-1471            2      0.00%    100.00% # Reads before turning the bus around for writes
system.mem_ctrls.rdPerTurnAround::1536-1599            1      0.00%    100.00% # Reads before turning the bus around for writes
system.mem_ctrls.rdPerTurnAround::total         80081                       # Reads before turning the bus around for writes
system.mem_ctrls.wrPerTurnAround::samples        80081                       # Writes before turning the bus around for reads
system.mem_ctrls.wrPerTurnAround::mean      16.920431                       # Writes before turning the bus around for reads
system.mem_ctrls.wrPerTurnAround::gmean     16.860895                       # Writes before turning the bus around for reads
system.mem_ctrls.wrPerTurnAround::stdev      1.952383                       # Writes before turning the bus around for reads
system.mem_ctrls.wrPerTurnAround::16-19         79353     99.09%     99.09% # Writes before turning the bus around for reads
system.mem_ctrls.wrPerTurnAround::20-23           392      0.49%     99.58% # Writes before turning the bus around for reads
system.mem_ctrls.wrPerTurnAround::24-27           185      0.23%     99.81% # Writes before turning the bus around for reads
system.mem_ctrls.wrPerTurnAround::28-31            52      0.06%     99.88% # Writes before turning the bus around for reads
system.mem_ctrls.wrPerTurnAround::32-35            26      0.03%     99.91% # Writes before turning the bus around for reads
system.mem_ctrls.wrPerTurnAround::36-39            13      0.02%     99.93% # Writes before turning the bus around for reads
system.mem_ctrls.wrPerTurnAround::40-43            16      0.02%     99.95% # Writes before turning the bus around for reads
system.mem_ctrls.wrPerTurnAround::44-47             7      0.01%     99.95% # Writes before turning the bus around for reads
system.mem_ctrls.wrPerTurnAround::48-51             5      0.01%     99.96% # Writes before turning the bus around for reads
system.mem_ctrls.wrPerTurnAround::52-55             3      0.00%     99.96% # Writes before turning the bus around for reads
system.mem_ctrls.wrPerTurnAround::56-59             3      0.00%     99.97% # Writes before turning the bus around for reads
system.mem_ctrls.wrPerTurnAround::60-63             4      0.00%     99.97% # Writes before turning the bus around for reads
system.mem_ctrls.wrPerTurnAround::64-67             2      0.00%     99.98% # Writes before turning the bus around for reads
system.mem_ctrls.wrPerTurnAround::68-71             2      0.00%     99.98% # Writes before turning the bus around for reads
system.mem_ctrls.wrPerTurnAround::72-75             2      0.00%     99.98% # Writes before turning the bus around for reads
system.mem_ctrls.wrPerTurnAround::76-79             1      0.00%     99.98% # Writes before turning the bus around for reads
system.mem_ctrls.wrPerTurnAround::84-87             1      0.00%     99.98% # Writes before turning the bus around for reads
system.mem_ctrls.wrPerTurnAround::88-91             2      0.00%     99.99% # Writes before turning the bus around for reads
system.mem_ctrls.wrPerTurnAround::92-95             1      0.00%     99.99% # Writes before turning the bus around for reads
system.mem_ctrls.wrPerTurnAround::96-99             3      0.00%     99.99% # Writes before turning the bus around for reads
system.mem_ctrls.wrPerTurnAround::100-103            4      0.00%    100.00% # Writes before turning the bus around for reads
system.mem_ctrls.wrPerTurnAround::112-115            1      0.00%    100.00% # Writes before turning the bus around for reads
system.mem_ctrls.wrPerTurnAround::120-123            1      0.00%    100.00% # Writes before turning the bus around for reads
system.mem_ctrls.wrPerTurnAround::140-143            1      0.00%    100.00% # Writes before turning the bus around for reads
system.mem_ctrls.wrPerTurnAround::168-171            1      0.00%    100.00% # Writes before turning the bus around for reads
system.mem_ctrls.wrPerTurnAround::total         80081                       # Writes before turning the bus around for reads
system.mem_ctrls.totQLat                  98274414109                       # Total ticks spent queuing
system.mem_ctrls.totMemAccLat            282294545359                       # Total ticks spent from burst creation until serviced by the DRAM
system.mem_ctrls.totBusLat                49072035000                       # Total ticks spent in databus transfers
system.mem_ctrls.avgQLat                     10013.28                       # Average queueing delay per DRAM burst
system.mem_ctrls.avgBusLat                    5000.00                       # Average bus latency per DRAM burst
system.mem_ctrls.avgMemAccLat                28763.28                       # Average memory access latency per DRAM burst
system.mem_ctrls.avgRdBW                       115.47                       # Average DRAM read bandwidth in MiByte/s
system.mem_ctrls.avgWrBW                        15.94                       # Average achieved write bandwidth in MiByte/s
system.mem_ctrls.avgRdBWSys                    116.46                       # Average system read bandwidth in MiByte/s
system.mem_ctrls.avgWrBWSys                     15.95                       # Average system write bandwidth in MiByte/s
system.mem_ctrls.peakBW                      12800.00                       # Theoretical peak bandwidth in MiByte/s
system.mem_ctrls.busUtil                         1.03                       # Data bus utilization in percentage
system.mem_ctrls.busUtilRead                     0.90                       # Data bus utilization in percentage for reads
system.mem_ctrls.busUtilWrite                    0.12                       # Data bus utilization in percentage for writes
system.mem_ctrls.avgRdQLen                       1.01                       # Average read queue length when enqueuing
system.mem_ctrls.avgWrQLen                      24.90                       # Average write queue length when enqueuing
system.mem_ctrls.readRowHits                  6789315                       # Number of row buffer hits during reads
system.mem_ctrls.writeRowHits                  750860                       # Number of row buffer hits during writes
system.mem_ctrls.readRowHitRate                 69.18                       # Row buffer hit rate for reads
system.mem_ctrls.writeRowHitRate                55.41                       # Row buffer hit rate for writes
system.mem_ctrls.avgGap                     483355.71                       # Average gap between requests
system.mem_ctrls.pageHitRate                    67.51                       # Row buffer hit rate, read and write combined
system.mem_ctrls_0.actEnergy              14461335000                       # Energy for activate commands per rank (pJ)
system.mem_ctrls_0.preEnergy               7890609375                       # Energy for precharge commands per rank (pJ)
system.mem_ctrls_0.readEnergy             40590646200                       # Energy for read commands per rank (pJ)
system.mem_ctrls_0.writeEnergy             5478891840                       # Energy for write commands per rank (pJ)
system.mem_ctrls_0.refreshEnergy         355283067360                       # Energy for refresh commands per rank (pJ)
system.mem_ctrls_0.actBackEnergy         1757470655925                       # Energy for active background per rank (pJ)
system.mem_ctrls_0.preBackEnergy         1722071810250                       # Energy for precharge background per rank (pJ)
system.mem_ctrls_0.totalEnergy           3903247015950                       # Total energy per rank (pJ)
system.mem_ctrls_0.averagePower            717.571796                       # Core power per rank (mW)
system.mem_ctrls_0.memoryStateTime::IDLE 2853839549500                       # Time in different power states
system.mem_ctrls_0.memoryStateTime::REF  181637560000                       # Time in different power states
system.mem_ctrls_0.memoryStateTime::PRE_PDN            0                       # Time in different power states
system.mem_ctrls_0.memoryStateTime::ACT  2404044226000                       # Time in different power states
system.mem_ctrls_0.memoryStateTime::ACT_PDN            0                       # Time in different power states
system.mem_ctrls_1.actEnergy              12975545520                       # Energy for activate commands per rank (pJ)
system.mem_ctrls_1.preEnergy               7079910750                       # Energy for precharge commands per rank (pJ)
system.mem_ctrls_1.readEnergy             35961369600                       # Energy for read commands per rank (pJ)
system.mem_ctrls_1.writeEnergy             3301540560                       # Energy for write commands per rank (pJ)
system.mem_ctrls_1.refreshEnergy         355283067360                       # Energy for refresh commands per rank (pJ)
system.mem_ctrls_1.actBackEnergy         1719969374385                       # Energy for active background per rank (pJ)
system.mem_ctrls_1.preBackEnergy         1754967671250                       # Energy for precharge background per rank (pJ)
system.mem_ctrls_1.totalEnergy           3889538479425                       # Total energy per rank (pJ)
system.mem_ctrls_1.averagePower            715.051623                       # Core power per rank (mW)
system.mem_ctrls_1.memoryStateTime::IDLE 2908916972000                       # Time in different power states
system.mem_ctrls_1.memoryStateTime::REF  181637560000                       # Time in different power states
system.mem_ctrls_1.memoryStateTime::PRE_PDN            0                       # Time in different power states
system.mem_ctrls_1.memoryStateTime::ACT  2348966709250                       # Time in different power states
system.mem_ctrls_1.memoryStateTime::ACT_PDN            0                       # Time in different power states
system.cpu_voltage_domain.voltage                   1                       # Voltage in Volts
system.cpu_clk_domain.clock                       500                       # Clock period in ticks
system.cpu0.dtb.fetch_hits                          0                       # ITB hits
system.cpu0.dtb.fetch_misses                        0                       # ITB misses
system.cpu0.dtb.fetch_acv                           0                       # ITB acv
system.cpu0.dtb.fetch_accesses                      0                       # ITB accesses
system.cpu0.dtb.read_hits                   236635722                       # DTB read hits
system.cpu0.dtb.read_misses                    111773                       # DTB read misses
system.cpu0.dtb.read_acv                            0                       # DTB read access violations
system.cpu0.dtb.read_accesses               233819060                       # DTB read accesses
system.cpu0.dtb.write_hits                   54339978                       # DTB write hits
system.cpu0.dtb.write_misses                     7557                       # DTB write misses
system.cpu0.dtb.write_acv                           0                       # DTB write access violations
system.cpu0.dtb.write_accesses               52196540                       # DTB write accesses
system.cpu0.dtb.data_hits                   290975700                       # DTB hits
system.cpu0.dtb.data_misses                    119330                       # DTB misses
system.cpu0.dtb.data_acv                            0                       # DTB access violations
system.cpu0.dtb.data_accesses               286015600                       # DTB accesses
system.cpu0.itb.fetch_hits                 1329933474                       # ITB hits
system.cpu0.itb.fetch_misses                    42271                       # ITB misses
system.cpu0.itb.fetch_acv                           0                       # ITB acv
system.cpu0.itb.fetch_accesses             1329975745                       # ITB accesses
system.cpu0.itb.read_hits                           0                       # DTB read hits
system.cpu0.itb.read_misses                         0                       # DTB read misses
system.cpu0.itb.read_acv                            0                       # DTB read access violations
system.cpu0.itb.read_accesses                       0                       # DTB read accesses
system.cpu0.itb.write_hits                          0                       # DTB write hits
system.cpu0.itb.write_misses                        0                       # DTB write misses
system.cpu0.itb.write_acv                           0                       # DTB write access violations
system.cpu0.itb.write_accesses                      0                       # DTB write accesses
system.cpu0.itb.data_hits                           0                       # DTB hits
system.cpu0.itb.data_misses                         0                       # DTB misses
system.cpu0.itb.data_acv                            0                       # DTB access violations
system.cpu0.itb.data_accesses                       0                       # DTB accesses
system.cpu0.numCycles                     15405498239                       # number of cpu cycles simulated
system.cpu0.numWorkItemsStarted                     0                       # number of work items this cpu started
system.cpu0.numWorkItemsCompleted                   0                       # number of work items this cpu completed
system.cpu0.committedInsts                 1342900763                       # Number of instructions committed
system.cpu0.committedOps                   1342900763                       # Number of ops (including micro ops) committed
system.cpu0.num_int_alu_accesses           1275345429                       # Number of integer alu accesses
system.cpu0.num_fp_alu_accesses                645179                       # Number of float alu accesses
system.cpu0.num_func_calls                    2739362                       # number of times a function call or return occured
system.cpu0.num_conditional_control_insts     19808561                       # number of instructions that are conditional controls
system.cpu0.num_int_insts                  1275345429                       # number of integer instructions
system.cpu0.num_fp_insts                       645179                       # number of float instructions
system.cpu0.num_int_register_reads         2054478630                       # number of times the integer registers were read
system.cpu0.num_int_register_writes        1194913418                       # number of times the integer registers were written
system.cpu0.num_fp_register_reads               36024                       # number of times the floating registers were read
system.cpu0.num_fp_register_writes              36002                       # number of times the floating registers were written
system.cpu0.num_mem_refs                    291119644                       # number of memory refs
system.cpu0.num_load_insts                  236766051                       # Number of load instructions
system.cpu0.num_store_insts                  54353593                       # Number of store instructions
system.cpu0.num_idle_cycles              10215796011.615395                       # Number of idle cycles
system.cpu0.num_busy_cycles              5189702227.384604                       # Number of busy cycles
system.cpu0.not_idle_fraction                0.336873                       # Percentage of non-idle cycles
system.cpu0.idle_fraction                    0.663127                       # Percentage of idle cycles
system.cpu0.Branches                         24309801                       # Number of branches fetched
system.cpu0.op_class::No_OpClass             65549812      4.88%      4.88% # Class of executed instruction
system.cpu0.op_class::IntAlu                975941059     72.67%     77.55% # Class of executed instruction
system.cpu0.op_class::IntMult                 7827143      0.58%     78.13% # Class of executed instruction
system.cpu0.op_class::IntDiv                        0      0.00%     78.13% # Class of executed instruction
system.cpu0.op_class::FloatAdd                 603414      0.04%     78.18% # Class of executed instruction
system.cpu0.op_class::FloatCmp                      3      0.00%     78.18% # Class of executed instruction
system.cpu0.op_class::FloatCvt                   3567      0.00%     78.18% # Class of executed instruction
system.cpu0.op_class::FloatMult                    18      0.00%     78.18% # Class of executed instruction
system.cpu0.op_class::FloatDiv                   1206      0.00%     78.18% # Class of executed instruction
system.cpu0.op_class::FloatSqrt                     0      0.00%     78.18% # Class of executed instruction
system.cpu0.op_class::SimdAdd                       0      0.00%     78.18% # Class of executed instruction
system.cpu0.op_class::SimdAddAcc                    0      0.00%     78.18% # Class of executed instruction
system.cpu0.op_class::SimdAlu                       0      0.00%     78.18% # Class of executed instruction
system.cpu0.op_class::SimdCmp                       0      0.00%     78.18% # Class of executed instruction
system.cpu0.op_class::SimdCvt                       0      0.00%     78.18% # Class of executed instruction
system.cpu0.op_class::SimdMisc                      0      0.00%     78.18% # Class of executed instruction
system.cpu0.op_class::SimdMult                      0      0.00%     78.18% # Class of executed instruction
system.cpu0.op_class::SimdMultAcc                   0      0.00%     78.18% # Class of executed instruction
system.cpu0.op_class::SimdShift                     0      0.00%     78.18% # Class of executed instruction
system.cpu0.op_class::SimdShiftAcc                  0      0.00%     78.18% # Class of executed instruction
system.cpu0.op_class::SimdSqrt                      0      0.00%     78.18% # Class of executed instruction
system.cpu0.op_class::SimdFloatAdd                  0      0.00%     78.18% # Class of executed instruction
system.cpu0.op_class::SimdFloatAlu                  0      0.00%     78.18% # Class of executed instruction
system.cpu0.op_class::SimdFloatCmp                  0      0.00%     78.18% # Class of executed instruction
system.cpu0.op_class::SimdFloatCvt                  0      0.00%     78.18% # Class of executed instruction
system.cpu0.op_class::SimdFloatDiv                  0      0.00%     78.18% # Class of executed instruction
system.cpu0.op_class::SimdFloatMisc                 0      0.00%     78.18% # Class of executed instruction
system.cpu0.op_class::SimdFloatMult                 0      0.00%     78.18% # Class of executed instruction
system.cpu0.op_class::SimdFloatMultAcc              0      0.00%     78.18% # Class of executed instruction
system.cpu0.op_class::SimdFloatSqrt                 0      0.00%     78.18% # Class of executed instruction
system.cpu0.op_class::MemRead               236846762     17.64%     95.81% # Class of executed instruction
system.cpu0.op_class::MemWrite               54365514      4.05%     99.86% # Class of executed instruction
system.cpu0.op_class::IprAccess               1881598      0.14%    100.00% # Class of executed instruction
system.cpu0.op_class::InstPrefetch                  0      0.00%    100.00% # Class of executed instruction
system.cpu0.op_class::total                1343020096                       # Class of executed instruction
system.cpu0.kern.inst.arm                           0                       # number of arm instructions executed
system.cpu0.kern.inst.quiesce                    3778                       # number of quiesce instructions executed
system.cpu0.kern.inst.hwrei                    276329                       # number of hwrei instructions executed
system.cpu0.kern.ipl_count::0                   24554     23.90%     23.90% # number of times we switched to this ipl
system.cpu0.kern.ipl_count::22                   5570      5.42%     29.32% # number of times we switched to this ipl
system.cpu0.kern.ipl_count::30                     93      0.09%     29.41% # number of times we switched to this ipl
system.cpu0.kern.ipl_count::31                  72512     70.59%    100.00% # number of times we switched to this ipl
system.cpu0.kern.ipl_count::total              102729                       # number of times we switched to this ipl
system.cpu0.kern.ipl_good::0                    24554     44.90%     44.90% # number of times we switched to this ipl from a different ipl
system.cpu0.kern.ipl_good::22                    5570     10.19%     55.09% # number of times we switched to this ipl from a different ipl
system.cpu0.kern.ipl_good::30                      93      0.17%     55.26% # number of times we switched to this ipl from a different ipl
system.cpu0.kern.ipl_good::31                   24469     44.74%    100.00% # number of times we switched to this ipl from a different ipl
system.cpu0.kern.ipl_good::total                54686                       # number of times we switched to this ipl from a different ipl
system.cpu0.kern.ipl_ticks::0            5403170685500     99.33%     99.33% # number of cycles we spent at this ipl
system.cpu0.kern.ipl_ticks::22             4030607500      0.07%     99.41% # number of cycles we spent at this ipl
system.cpu0.kern.ipl_ticks::30              102290000      0.00%     99.41% # number of cycles we spent at this ipl
system.cpu0.kern.ipl_ticks::31            32177112000      0.59%    100.00% # number of cycles we spent at this ipl
system.cpu0.kern.ipl_ticks::total        5439480695000                       # number of cycles we spent at this ipl
system.cpu0.kern.ipl_used::0                        1                       # fraction of swpipl calls that actually changed the ipl
system.cpu0.kern.ipl_used::22                       1                       # fraction of swpipl calls that actually changed the ipl
system.cpu0.kern.ipl_used::30                       1                       # fraction of swpipl calls that actually changed the ipl
system.cpu0.kern.ipl_used::31                0.337448                       # fraction of swpipl calls that actually changed the ipl
system.cpu0.kern.ipl_used::total             0.532333                       # fraction of swpipl calls that actually changed the ipl
system.cpu0.kern.syscall::1                         4     12.12%     12.12% # number of syscalls executed
system.cpu0.kern.syscall::3                        12     36.36%     48.48% # number of syscalls executed
system.cpu0.kern.syscall::4                        10     30.30%     78.79% # number of syscalls executed
system.cpu0.kern.syscall::17                        3      9.09%     87.88% # number of syscalls executed
system.cpu0.kern.syscall::71                        4     12.12%    100.00% # number of syscalls executed
system.cpu0.kern.syscall::total                    33                       # number of syscalls executed
system.cpu0.kern.callpal::wripir                   24      0.02%      0.02% # number of callpals executed
system.cpu0.kern.callpal::swpctx                  123      0.11%      0.13% # number of callpals executed
system.cpu0.kern.callpal::swpipl                90771     83.23%     83.36% # number of callpals executed
system.cpu0.kern.callpal::rdps                  11227     10.29%     93.66% # number of callpals executed
system.cpu0.kern.callpal::rti                    6296      5.77%     99.43% # number of callpals executed
system.cpu0.kern.callpal::callsys                 103      0.09%     99.52% # number of callpals executed
system.cpu0.kern.callpal::rdunique                519      0.48%    100.00% # number of callpals executed
system.cpu0.kern.callpal::total                109063                       # number of callpals executed
system.cpu0.kern.mode_switch::kernel             6416                       # number of protection mode switches
system.cpu0.kern.mode_switch::user               2485                       # number of protection mode switches
system.cpu0.kern.mode_switch::idle                  0                       # number of protection mode switches
system.cpu0.kern.mode_good::kernel               2484                      
system.cpu0.kern.mode_good::user                 2485                      
system.cpu0.kern.mode_good::idle                    0                      
system.cpu0.kern.mode_switch_good::kernel     0.387157                       # fraction of useful protection mode switches
system.cpu0.kern.mode_switch_good::user             1                       # fraction of useful protection mode switches
system.cpu0.kern.mode_switch_good::idle           nan                       # fraction of useful protection mode switches
system.cpu0.kern.mode_switch_good::total     0.558252                       # fraction of useful protection mode switches
system.cpu0.kern.mode_ticks::kernel      3662600559500     67.32%     67.32% # number of ticks spent at the given mode
system.cpu0.kern.mode_ticks::user        1778208249500     32.68%    100.00% # number of ticks spent at the given mode
system.cpu0.kern.mode_ticks::idle                   0      0.00%    100.00% # number of ticks spent at the given mode
system.cpu0.kern.swap_context                     123                       # number of times the context was actually changed
system.cpu0.dcache.tags.replacements          1694966                       # number of replacements
system.cpu0.dcache.tags.tagsinuse          497.807426                       # Cycle average of tags in use
system.cpu0.dcache.tags.total_refs          289276983                       # Total number of references to valid blocks.
system.cpu0.dcache.tags.sampled_refs          1694966                       # Sample count of references to valid blocks.
system.cpu0.dcache.tags.avg_refs           170.668310                       # Average number of references to valid blocks.
system.cpu0.dcache.tags.warmup_cycle     2278690738500                       # Cycle when the warmup percentage was hit.
system.cpu0.dcache.tags.occ_blocks::cpu0.data   497.807426                       # Average occupied blocks per requestor
system.cpu0.dcache.tags.occ_percent::cpu0.data     0.972280                       # Average percentage of cache occupancy
system.cpu0.dcache.tags.occ_percent::total     0.972280                       # Average percentage of cache occupancy
system.cpu0.dcache.tags.occ_task_id_blocks::1024          512                       # Occupied blocks per task id
system.cpu0.dcache.tags.age_task_id_blocks_1024::0          125                       # Occupied blocks per task id
system.cpu0.dcache.tags.age_task_id_blocks_1024::1          375                       # Occupied blocks per task id
system.cpu0.dcache.tags.age_task_id_blocks_1024::2           12                       # Occupied blocks per task id
system.cpu0.dcache.tags.occ_task_id_percent::1024            1                       # Percentage of cache occupancy per task id
system.cpu0.dcache.tags.tag_accesses        583680600                       # Number of tag accesses
system.cpu0.dcache.tags.data_accesses       583680600                       # Number of data accesses
system.cpu0.dcache.ReadReq_hits::cpu0.data    235242647                       # number of ReadReq hits
system.cpu0.dcache.ReadReq_hits::total      235242647                       # number of ReadReq hits
system.cpu0.dcache.WriteReq_hits::cpu0.data     53953972                       # number of WriteReq hits
system.cpu0.dcache.WriteReq_hits::total      53953972                       # number of WriteReq hits
system.cpu0.dcache.LoadLockedReq_hits::cpu0.data        35180                       # number of LoadLockedReq hits
system.cpu0.dcache.LoadLockedReq_hits::total        35180                       # number of LoadLockedReq hits
system.cpu0.dcache.StoreCondReq_hits::cpu0.data        40021                       # number of StoreCondReq hits
system.cpu0.dcache.StoreCondReq_hits::total        40021                       # number of StoreCondReq hits
system.cpu0.dcache.demand_hits::cpu0.data    289196619                       # number of demand (read+write) hits
system.cpu0.dcache.demand_hits::total       289196619                       # number of demand (read+write) hits
system.cpu0.dcache.overall_hits::cpu0.data    289196619                       # number of overall hits
system.cpu0.dcache.overall_hits::total      289196619                       # number of overall hits
system.cpu0.dcache.ReadReq_misses::cpu0.data      1369164                       # number of ReadReq misses
system.cpu0.dcache.ReadReq_misses::total      1369164                       # number of ReadReq misses
system.cpu0.dcache.WriteReq_misses::cpu0.data       337660                       # number of WriteReq misses
system.cpu0.dcache.WriteReq_misses::total       337660                       # number of WriteReq misses
system.cpu0.dcache.LoadLockedReq_misses::cpu0.data         7210                       # number of LoadLockedReq misses
system.cpu0.dcache.LoadLockedReq_misses::total         7210                       # number of LoadLockedReq misses
system.cpu0.dcache.StoreCondReq_misses::cpu0.data         2317                       # number of StoreCondReq misses
system.cpu0.dcache.StoreCondReq_misses::total         2317                       # number of StoreCondReq misses
system.cpu0.dcache.demand_misses::cpu0.data      1706824                       # number of demand (read+write) misses
system.cpu0.dcache.demand_misses::total       1706824                       # number of demand (read+write) misses
system.cpu0.dcache.overall_misses::cpu0.data      1706824                       # number of overall misses
system.cpu0.dcache.overall_misses::total      1706824                       # number of overall misses
system.cpu0.dcache.ReadReq_miss_latency::cpu0.data  70712647500                       # number of ReadReq miss cycles
system.cpu0.dcache.ReadReq_miss_latency::total  70712647500                       # number of ReadReq miss cycles
system.cpu0.dcache.WriteReq_miss_latency::cpu0.data  16449994500                       # number of WriteReq miss cycles
system.cpu0.dcache.WriteReq_miss_latency::total  16449994500                       # number of WriteReq miss cycles
system.cpu0.dcache.LoadLockedReq_miss_latency::cpu0.data    334805500                       # number of LoadLockedReq miss cycles
system.cpu0.dcache.LoadLockedReq_miss_latency::total    334805500                       # number of LoadLockedReq miss cycles
system.cpu0.dcache.StoreCondReq_miss_latency::cpu0.data     43518000                       # number of StoreCondReq miss cycles
system.cpu0.dcache.StoreCondReq_miss_latency::total     43518000                       # number of StoreCondReq miss cycles
system.cpu0.dcache.StoreCondFailReq_miss_latency::cpu0.data        40000                       # number of StoreCondFailReq miss cycles
system.cpu0.dcache.StoreCondFailReq_miss_latency::total        40000                       # number of StoreCondFailReq miss cycles
system.cpu0.dcache.demand_miss_latency::cpu0.data  87162642000                       # number of demand (read+write) miss cycles
system.cpu0.dcache.demand_miss_latency::total  87162642000                       # number of demand (read+write) miss cycles
system.cpu0.dcache.overall_miss_latency::cpu0.data  87162642000                       # number of overall miss cycles
system.cpu0.dcache.overall_miss_latency::total  87162642000                       # number of overall miss cycles
system.cpu0.dcache.ReadReq_accesses::cpu0.data    236611811                       # number of ReadReq accesses(hits+misses)
system.cpu0.dcache.ReadReq_accesses::total    236611811                       # number of ReadReq accesses(hits+misses)
system.cpu0.dcache.WriteReq_accesses::cpu0.data     54291632                       # number of WriteReq accesses(hits+misses)
system.cpu0.dcache.WriteReq_accesses::total     54291632                       # number of WriteReq accesses(hits+misses)
system.cpu0.dcache.LoadLockedReq_accesses::cpu0.data        42390                       # number of LoadLockedReq accesses(hits+misses)
system.cpu0.dcache.LoadLockedReq_accesses::total        42390                       # number of LoadLockedReq accesses(hits+misses)
system.cpu0.dcache.StoreCondReq_accesses::cpu0.data        42338                       # number of StoreCondReq accesses(hits+misses)
system.cpu0.dcache.StoreCondReq_accesses::total        42338                       # number of StoreCondReq accesses(hits+misses)
system.cpu0.dcache.demand_accesses::cpu0.data    290903443                       # number of demand (read+write) accesses
system.cpu0.dcache.demand_accesses::total    290903443                       # number of demand (read+write) accesses
system.cpu0.dcache.overall_accesses::cpu0.data    290903443                       # number of overall (read+write) accesses
system.cpu0.dcache.overall_accesses::total    290903443                       # number of overall (read+write) accesses
system.cpu0.dcache.ReadReq_miss_rate::cpu0.data     0.005787                       # miss rate for ReadReq accesses
system.cpu0.dcache.ReadReq_miss_rate::total     0.005787                       # miss rate for ReadReq accesses
system.cpu0.dcache.WriteReq_miss_rate::cpu0.data     0.006219                       # miss rate for WriteReq accesses
system.cpu0.dcache.WriteReq_miss_rate::total     0.006219                       # miss rate for WriteReq accesses
system.cpu0.dcache.LoadLockedReq_miss_rate::cpu0.data     0.170087                       # miss rate for LoadLockedReq accesses
system.cpu0.dcache.LoadLockedReq_miss_rate::total     0.170087                       # miss rate for LoadLockedReq accesses
system.cpu0.dcache.StoreCondReq_miss_rate::cpu0.data     0.054726                       # miss rate for StoreCondReq accesses
system.cpu0.dcache.StoreCondReq_miss_rate::total     0.054726                       # miss rate for StoreCondReq accesses
system.cpu0.dcache.demand_miss_rate::cpu0.data     0.005867                       # miss rate for demand accesses
system.cpu0.dcache.demand_miss_rate::total     0.005867                       # miss rate for demand accesses
system.cpu0.dcache.overall_miss_rate::cpu0.data     0.005867                       # miss rate for overall accesses
system.cpu0.dcache.overall_miss_rate::total     0.005867                       # miss rate for overall accesses
system.cpu0.dcache.ReadReq_avg_miss_latency::cpu0.data 51646.586895                       # average ReadReq miss latency
system.cpu0.dcache.ReadReq_avg_miss_latency::total 51646.586895                       # average ReadReq miss latency
system.cpu0.dcache.WriteReq_avg_miss_latency::cpu0.data 48717.628680                       # average WriteReq miss latency
system.cpu0.dcache.WriteReq_avg_miss_latency::total 48717.628680                       # average WriteReq miss latency
system.cpu0.dcache.LoadLockedReq_avg_miss_latency::cpu0.data 46436.269071                       # average LoadLockedReq miss latency
system.cpu0.dcache.LoadLockedReq_avg_miss_latency::total 46436.269071                       # average LoadLockedReq miss latency
system.cpu0.dcache.StoreCondReq_avg_miss_latency::cpu0.data 18782.045749                       # average StoreCondReq miss latency
system.cpu0.dcache.StoreCondReq_avg_miss_latency::total 18782.045749                       # average StoreCondReq miss latency
system.cpu0.dcache.StoreCondFailReq_avg_miss_latency::cpu0.data          inf                       # average StoreCondFailReq miss latency
system.cpu0.dcache.StoreCondFailReq_avg_miss_latency::total          inf                       # average StoreCondFailReq miss latency
system.cpu0.dcache.demand_avg_miss_latency::cpu0.data 51067.152794                       # average overall miss latency
system.cpu0.dcache.demand_avg_miss_latency::total 51067.152794                       # average overall miss latency
system.cpu0.dcache.overall_avg_miss_latency::cpu0.data 51067.152794                       # average overall miss latency
system.cpu0.dcache.overall_avg_miss_latency::total 51067.152794                       # average overall miss latency
system.cpu0.dcache.blocked_cycles::no_mshrs            0                       # number of cycles access was blocked
system.cpu0.dcache.blocked_cycles::no_targets            0                       # number of cycles access was blocked
system.cpu0.dcache.blocked::no_mshrs                0                       # number of cycles access was blocked
system.cpu0.dcache.blocked::no_targets              0                       # number of cycles access was blocked
system.cpu0.dcache.avg_blocked_cycles::no_mshrs          nan                       # average number of cycles each access was blocked
system.cpu0.dcache.avg_blocked_cycles::no_targets          nan                       # average number of cycles each access was blocked
system.cpu0.dcache.fast_writes                      0                       # number of fast writes performed
system.cpu0.dcache.cache_copies                     0                       # number of cache copies performed
system.cpu0.dcache.writebacks::writebacks       592565                       # number of writebacks
system.cpu0.dcache.writebacks::total           592565                       # number of writebacks
system.cpu0.dcache.ReadReq_mshr_misses::cpu0.data      1369164                       # number of ReadReq MSHR misses
system.cpu0.dcache.ReadReq_mshr_misses::total      1369164                       # number of ReadReq MSHR misses
system.cpu0.dcache.WriteReq_mshr_misses::cpu0.data       337660                       # number of WriteReq MSHR misses
system.cpu0.dcache.WriteReq_mshr_misses::total       337660                       # number of WriteReq MSHR misses
system.cpu0.dcache.LoadLockedReq_mshr_misses::cpu0.data         7210                       # number of LoadLockedReq MSHR misses
system.cpu0.dcache.LoadLockedReq_mshr_misses::total         7210                       # number of LoadLockedReq MSHR misses
system.cpu0.dcache.StoreCondReq_mshr_misses::cpu0.data         2317                       # number of StoreCondReq MSHR misses
system.cpu0.dcache.StoreCondReq_mshr_misses::total         2317                       # number of StoreCondReq MSHR misses
system.cpu0.dcache.demand_mshr_misses::cpu0.data      1706824                       # number of demand (read+write) MSHR misses
system.cpu0.dcache.demand_mshr_misses::total      1706824                       # number of demand (read+write) MSHR misses
system.cpu0.dcache.overall_mshr_misses::cpu0.data      1706824                       # number of overall MSHR misses
system.cpu0.dcache.overall_mshr_misses::total      1706824                       # number of overall MSHR misses
system.cpu0.dcache.ReadReq_mshr_uncacheable::cpu0.data           77                       # number of ReadReq MSHR uncacheable
system.cpu0.dcache.ReadReq_mshr_uncacheable::total           77                       # number of ReadReq MSHR uncacheable
system.cpu0.dcache.WriteReq_mshr_uncacheable::cpu0.data         5761                       # number of WriteReq MSHR uncacheable
system.cpu0.dcache.WriteReq_mshr_uncacheable::total         5761                       # number of WriteReq MSHR uncacheable
system.cpu0.dcache.overall_mshr_uncacheable_misses::cpu0.data         5838                       # number of overall MSHR uncacheable misses
system.cpu0.dcache.overall_mshr_uncacheable_misses::total         5838                       # number of overall MSHR uncacheable misses
system.cpu0.dcache.ReadReq_mshr_miss_latency::cpu0.data  69343483500                       # number of ReadReq MSHR miss cycles
system.cpu0.dcache.ReadReq_mshr_miss_latency::total  69343483500                       # number of ReadReq MSHR miss cycles
system.cpu0.dcache.WriteReq_mshr_miss_latency::cpu0.data  16112334500                       # number of WriteReq MSHR miss cycles
system.cpu0.dcache.WriteReq_mshr_miss_latency::total  16112334500                       # number of WriteReq MSHR miss cycles
system.cpu0.dcache.LoadLockedReq_mshr_miss_latency::cpu0.data    327595500                       # number of LoadLockedReq MSHR miss cycles
system.cpu0.dcache.LoadLockedReq_mshr_miss_latency::total    327595500                       # number of LoadLockedReq MSHR miss cycles
system.cpu0.dcache.StoreCondReq_mshr_miss_latency::cpu0.data     41205000                       # number of StoreCondReq MSHR miss cycles
system.cpu0.dcache.StoreCondReq_mshr_miss_latency::total     41205000                       # number of StoreCondReq MSHR miss cycles
system.cpu0.dcache.StoreCondFailReq_mshr_miss_latency::cpu0.data        36000                       # number of StoreCondFailReq MSHR miss cycles
system.cpu0.dcache.StoreCondFailReq_mshr_miss_latency::total        36000                       # number of StoreCondFailReq MSHR miss cycles
system.cpu0.dcache.demand_mshr_miss_latency::cpu0.data  85455818000                       # number of demand (read+write) MSHR miss cycles
system.cpu0.dcache.demand_mshr_miss_latency::total  85455818000                       # number of demand (read+write) MSHR miss cycles
system.cpu0.dcache.overall_mshr_miss_latency::cpu0.data  85455818000                       # number of overall MSHR miss cycles
system.cpu0.dcache.overall_mshr_miss_latency::total  85455818000                       # number of overall MSHR miss cycles
system.cpu0.dcache.ReadReq_mshr_uncacheable_latency::cpu0.data     16393500                       # number of ReadReq MSHR uncacheable cycles
system.cpu0.dcache.ReadReq_mshr_uncacheable_latency::total     16393500                       # number of ReadReq MSHR uncacheable cycles
system.cpu0.dcache.WriteReq_mshr_uncacheable_latency::cpu0.data   1312507500                       # number of WriteReq MSHR uncacheable cycles
system.cpu0.dcache.WriteReq_mshr_uncacheable_latency::total   1312507500                       # number of WriteReq MSHR uncacheable cycles
system.cpu0.dcache.overall_mshr_uncacheable_latency::cpu0.data   1328901000                       # number of overall MSHR uncacheable cycles
system.cpu0.dcache.overall_mshr_uncacheable_latency::total   1328901000                       # number of overall MSHR uncacheable cycles
system.cpu0.dcache.ReadReq_mshr_miss_rate::cpu0.data     0.005787                       # mshr miss rate for ReadReq accesses
system.cpu0.dcache.ReadReq_mshr_miss_rate::total     0.005787                       # mshr miss rate for ReadReq accesses
system.cpu0.dcache.WriteReq_mshr_miss_rate::cpu0.data     0.006219                       # mshr miss rate for WriteReq accesses
system.cpu0.dcache.WriteReq_mshr_miss_rate::total     0.006219                       # mshr miss rate for WriteReq accesses
system.cpu0.dcache.LoadLockedReq_mshr_miss_rate::cpu0.data     0.170087                       # mshr miss rate for LoadLockedReq accesses
system.cpu0.dcache.LoadLockedReq_mshr_miss_rate::total     0.170087                       # mshr miss rate for LoadLockedReq accesses
system.cpu0.dcache.StoreCondReq_mshr_miss_rate::cpu0.data     0.054726                       # mshr miss rate for StoreCondReq accesses
system.cpu0.dcache.StoreCondReq_mshr_miss_rate::total     0.054726                       # mshr miss rate for StoreCondReq accesses
system.cpu0.dcache.demand_mshr_miss_rate::cpu0.data     0.005867                       # mshr miss rate for demand accesses
system.cpu0.dcache.demand_mshr_miss_rate::total     0.005867                       # mshr miss rate for demand accesses
system.cpu0.dcache.overall_mshr_miss_rate::cpu0.data     0.005867                       # mshr miss rate for overall accesses
system.cpu0.dcache.overall_mshr_miss_rate::total     0.005867                       # mshr miss rate for overall accesses
system.cpu0.dcache.ReadReq_avg_mshr_miss_latency::cpu0.data 50646.586895                       # average ReadReq mshr miss latency
system.cpu0.dcache.ReadReq_avg_mshr_miss_latency::total 50646.586895                       # average ReadReq mshr miss latency
system.cpu0.dcache.WriteReq_avg_mshr_miss_latency::cpu0.data 47717.628680                       # average WriteReq mshr miss latency
system.cpu0.dcache.WriteReq_avg_mshr_miss_latency::total 47717.628680                       # average WriteReq mshr miss latency
system.cpu0.dcache.LoadLockedReq_avg_mshr_miss_latency::cpu0.data 45436.269071                       # average LoadLockedReq mshr miss latency
system.cpu0.dcache.LoadLockedReq_avg_mshr_miss_latency::total 45436.269071                       # average LoadLockedReq mshr miss latency
system.cpu0.dcache.StoreCondReq_avg_mshr_miss_latency::cpu0.data 17783.772119                       # average StoreCondReq mshr miss latency
system.cpu0.dcache.StoreCondReq_avg_mshr_miss_latency::total 17783.772119                       # average StoreCondReq mshr miss latency
system.cpu0.dcache.StoreCondFailReq_avg_mshr_miss_latency::cpu0.data          inf                       # average StoreCondFailReq mshr miss latency
system.cpu0.dcache.StoreCondFailReq_avg_mshr_miss_latency::total          inf                       # average StoreCondFailReq mshr miss latency
system.cpu0.dcache.demand_avg_mshr_miss_latency::cpu0.data 50067.152794                       # average overall mshr miss latency
system.cpu0.dcache.demand_avg_mshr_miss_latency::total 50067.152794                       # average overall mshr miss latency
system.cpu0.dcache.overall_avg_mshr_miss_latency::cpu0.data 50067.152794                       # average overall mshr miss latency
system.cpu0.dcache.overall_avg_mshr_miss_latency::total 50067.152794                       # average overall mshr miss latency
system.cpu0.dcache.ReadReq_avg_mshr_uncacheable_latency::cpu0.data 212902.597403                       # average ReadReq mshr uncacheable latency
system.cpu0.dcache.ReadReq_avg_mshr_uncacheable_latency::total 212902.597403                       # average ReadReq mshr uncacheable latency
system.cpu0.dcache.WriteReq_avg_mshr_uncacheable_latency::cpu0.data 227826.332234                       # average WriteReq mshr uncacheable latency
system.cpu0.dcache.WriteReq_avg_mshr_uncacheable_latency::total 227826.332234                       # average WriteReq mshr uncacheable latency
system.cpu0.dcache.overall_avg_mshr_uncacheable_latency::cpu0.data 227629.496403                       # average overall mshr uncacheable latency
system.cpu0.dcache.overall_avg_mshr_uncacheable_latency::total 227629.496403                       # average overall mshr uncacheable latency
system.cpu0.dcache.no_allocate_misses               0                       # Number of misses that were no-allocate
system.cpu0.icache.tags.replacements          5261829                       # number of replacements
system.cpu0.icache.tags.tagsinuse          511.316203                       # Cycle average of tags in use
system.cpu0.icache.tags.total_refs         1335459802                       # Total number of references to valid blocks.
system.cpu0.icache.tags.sampled_refs          5261829                       # Sample count of references to valid blocks.
system.cpu0.icache.tags.avg_refs           253.801445                       # Average number of references to valid blocks.
system.cpu0.icache.tags.warmup_cycle     2381915798500                       # Cycle when the warmup percentage was hit.
system.cpu0.icache.tags.occ_blocks::cpu0.inst   511.316203                       # Average occupied blocks per requestor
system.cpu0.icache.tags.occ_percent::cpu0.inst     0.998664                       # Average percentage of cache occupancy
[...]
system.l2.demand_avg_mshr_miss_latency::cpu0.inst 70320.960699                       # average overall mshr miss latency
system.l2.demand_avg_mshr_miss_latency::cpu0.data 69493.706138                       # average overall mshr miss latency
system.l2.demand_avg_mshr_miss_latency::cpu1.inst 71881.275441                       # average overall mshr miss latency
system.l2.demand_avg_mshr_miss_latency::cpu1.data 69424.206816                       # average overall mshr miss latency
system.l2.demand_avg_mshr_miss_latency::cpu2.inst 69960.734319                       # average overall mshr miss latency
system.l2.demand_avg_mshr_miss_latency::cpu2.data 66219.200659                       # average overall mshr miss latency
system.l2.demand_avg_mshr_miss_latency::cpu3.inst 74916.666667                       # average overall mshr miss latency
system.l2.demand_avg_mshr_miss_latency::cpu3.data 136642.857143                       # average overall mshr miss latency
system.l2.demand_avg_mshr_miss_latency::total 68593.989308                       # average overall mshr miss latency
system.l2.overall_avg_mshr_miss_latency::cpu0.inst 70320.960699                       # average overall mshr miss latency
system.l2.overall_avg_mshr_miss_latency::cpu0.data 69493.706138                       # average overall mshr miss latency
system.l2.overall_avg_mshr_miss_latency::cpu1.inst 71881.275441                       # average overall mshr miss latency
system.l2.overall_avg_mshr_miss_latency::cpu1.data 69424.206816                       # average overall mshr miss latency
system.l2.overall_avg_mshr_miss_latency::cpu2.inst 69960.734319                       # average overall mshr miss latency
system.l2.overall_avg_mshr_miss_latency::cpu2.data 66219.200659                       # average overall mshr miss latency
system.l2.overall_avg_mshr_miss_latency::cpu3.inst 74916.666667                       # average overall mshr miss latency
system.l2.overall_avg_mshr_miss_latency::cpu3.data 136642.857143                       # average overall mshr miss latency
system.l2.overall_avg_mshr_miss_latency::total 68593.989308                       # average overall mshr miss latency
system.l2.ReadReq_avg_mshr_uncacheable_latency::cpu0.data 214811.791383                       # average ReadReq mshr uncacheable latency
system.l2.ReadReq_avg_mshr_uncacheable_latency::total 214811.791383                       # average ReadReq mshr uncacheable latency
system.l2.WriteReq_avg_mshr_uncacheable_latency::cpu0.data 214889.447236                       # average WriteReq mshr uncacheable latency
system.l2.WriteReq_avg_mshr_uncacheable_latency::cpu1.data 215555.555556                       # average WriteReq mshr uncacheable latency
system.l2.WriteReq_avg_mshr_uncacheable_latency::cpu2.data       215200                       # average WriteReq mshr uncacheable latency
system.l2.WriteReq_avg_mshr_uncacheable_latency::cpu3.data 215214.285714                       # average WriteReq mshr uncacheable latency
system.l2.WriteReq_avg_mshr_uncacheable_latency::total       214940                       # average WriteReq mshr uncacheable latency
system.l2.overall_avg_mshr_uncacheable_latency::cpu0.data 214835.937500                       # average overall mshr uncacheable latency
system.l2.overall_avg_mshr_uncacheable_latency::cpu1.data 215555.555556                       # average overall mshr uncacheable latency
system.l2.overall_avg_mshr_uncacheable_latency::cpu2.data       215200                       # average overall mshr uncacheable latency
system.l2.overall_avg_mshr_uncacheable_latency::cpu3.data 215214.285714                       # average overall mshr uncacheable latency
system.l2.overall_avg_mshr_uncacheable_latency::total 214855.105105                       # average overall mshr uncacheable latency
system.l2.no_allocate_misses                        0                       # Number of misses that were no-allocate
system.membus.trans_dist::ReadReq                 441                       # Transaction distribution
system.membus.trans_dist::ReadResp              18750                       # Transaction distribution
system.membus.trans_dist::WriteReq                225                       # Transaction distribution
system.membus.trans_dist::WriteResp               225                       # Transaction distribution
system.membus.trans_dist::Writeback             12311                       # Transaction distribution
system.membus.trans_dist::CleanEvict            12662                       # Transaction distribution
system.membus.trans_dist::UpgradeReq              130                       # Transaction distribution
system.membus.trans_dist::SCUpgradeReq             83                       # Transaction distribution
system.membus.trans_dist::UpgradeResp              67                       # Transaction distribution
system.membus.trans_dist::ReadExReq              9381                       # Transaction distribution
system.membus.trans_dist::ReadExResp             9373                       # Transaction distribution
system.membus.trans_dist::ReadSharedReq         18309                       # Transaction distribution
system.membus.pkt_count_system.l2.mem_side::system.bridge.slave         1332                       # Packet count per connected master and slave (bytes)
system.membus.pkt_count_system.l2.mem_side::system.mem_ctrls.port        80625                       # Packet count per connected master and slave (bytes)
system.membus.pkt_count_system.l2.mem_side::total        81957                       # Packet count per connected master and slave (bytes)
system.membus.pkt_count::total                  81957                       # Packet count per connected master and slave (bytes)
system.membus.pkt_size_system.l2.mem_side::system.bridge.slave         1058                       # Cumulative packet size per connected master and slave (bytes)
system.membus.pkt_size_system.l2.mem_side::system.mem_ctrls.port      2559552                       # Cumulative packet size per connected master and slave (bytes)
system.membus.pkt_size_system.l2.mem_side::total      2560610                       # Cumulative packet size per connected master and slave (bytes)
system.membus.pkt_size::total                 2560610                       # Cumulative packet size per connected master and slave (bytes)
system.membus.snoops                              154                       # Total snoops (count)
system.membus.snoop_fanout::samples             53542                       # Request fanout histogram
system.membus.snoop_fanout::mean                    1                       # Request fanout histogram
system.membus.snoop_fanout::stdev                   0                       # Request fanout histogram
system.membus.snoop_fanout::underflows              0      0.00%      0.00% # Request fanout histogram
system.membus.snoop_fanout::0                       0      0.00%      0.00% # Request fanout histogram
system.membus.snoop_fanout::1                   53542    100.00%    100.00% # Request fanout histogram
system.membus.snoop_fanout::2                       0      0.00%    100.00% # Request fanout histogram
system.membus.snoop_fanout::overflows               0      0.00%    100.00% # Request fanout histogram
system.membus.snoop_fanout::min_value               1                       # Request fanout histogram
system.membus.snoop_fanout::max_value               1                       # Request fanout histogram
system.membus.snoop_fanout::total               53542                       # Request fanout histogram
system.membus.reqLayer0.occupancy             1106000                       # Layer occupancy (ticks)
system.membus.reqLayer0.utilization               0.0                       # Layer utilization (%)
system.membus.reqLayer1.occupancy           102124500                       # Layer occupancy (ticks)
system.membus.reqLayer1.utilization               1.7                       # Layer utilization (%)
system.membus.respLayer2.occupancy          148944935                       # Layer occupancy (ticks)
system.membus.respLayer2.utilization              2.4                       # Layer utilization (%)
system.tol2bus.trans_dist::ReadReq                441                       # Transaction distribution
system.tol2bus.trans_dist::ReadResp             39560                       # Transaction distribution
system.tol2bus.trans_dist::WriteReq               225                       # Transaction distribution
system.tol2bus.trans_dist::WriteResp              225                       # Transaction distribution
system.tol2bus.trans_dist::Writeback            35941                       # Transaction distribution
system.tol2bus.trans_dist::CleanEvict           37149                       # Transaction distribution
system.tol2bus.trans_dist::UpgradeReq             291                       # Transaction distribution
system.tol2bus.trans_dist::SCUpgradeReq            88                       # Transaction distribution
system.tol2bus.trans_dist::UpgradeResp            379                       # Transaction distribution
system.tol2bus.trans_dist::ReadExReq            13209                       # Transaction distribution
system.tol2bus.trans_dist::ReadExResp           13209                       # Transaction distribution
system.tol2bus.trans_dist::ReadCleanReq         16204                       # Transaction distribution
system.tol2bus.trans_dist::ReadSharedReq        22915                       # Transaction distribution
system.tol2bus.pkt_count_system.cpu0.icache.mem_side::system.l2.cpu_side        28104                       # Packet count per connected master and slave (bytes)
system.tol2bus.pkt_count_system.cpu0.dcache.mem_side::system.l2.cpu_side        58762                       # Packet count per connected master and slave (bytes)
system.tol2bus.pkt_count_system.cpu1.icache.mem_side::system.l2.cpu_side         3898                       # Packet count per connected master and slave (bytes)
system.tol2bus.pkt_count_system.cpu1.dcache.mem_side::system.l2.cpu_side         9135                       # Packet count per connected master and slave (bytes)
system.tol2bus.pkt_count_system.cpu2.icache.mem_side::system.l2.cpu_side        12478                       # Packet count per connected master and slave (bytes)
system.tol2bus.pkt_count_system.cpu2.dcache.mem_side::system.l2.cpu_side        38839                       # Packet count per connected master and slave (bytes)
system.tol2bus.pkt_count_system.cpu3.icache.mem_side::system.l2.cpu_side          112                       # Packet count per connected master and slave (bytes)
system.tol2bus.pkt_count_system.cpu3.dcache.mem_side::system.l2.cpu_side          133                       # Packet count per connected master and slave (bytes)
system.tol2bus.pkt_count::total                151461                       # Packet count per connected master and slave (bytes)
system.tol2bus.pkt_size_system.cpu0.icache.mem_side::system.l2.cpu_side       637888                       # Cumulative packet size per connected master and slave (bytes)
system.tol2bus.pkt_size_system.cpu0.dcache.mem_side::system.l2.cpu_side      2089554                       # Cumulative packet size per connected master and slave (bytes)
system.tol2bus.pkt_size_system.cpu1.icache.mem_side::system.l2.cpu_side       101248                       # Cumulative packet size per connected master and slave (bytes)
system.tol2bus.pkt_size_system.cpu1.dcache.mem_side::system.l2.cpu_side       310536                       # Cumulative packet size per connected master and slave (bytes)
system.tol2bus.pkt_size_system.cpu2.icache.mem_side::system.l2.cpu_side       294784                       # Cumulative packet size per connected master and slave (bytes)
system.tol2bus.pkt_size_system.cpu2.dcache.mem_side::system.l2.cpu_side      1398800                       # Cumulative packet size per connected master and slave (bytes)
system.tol2bus.pkt_size_system.cpu3.icache.mem_side::system.l2.cpu_side         3072                       # Cumulative packet size per connected master and slave (bytes)
system.tol2bus.pkt_size_system.cpu3.dcache.mem_side::system.l2.cpu_side         2360                       # Cumulative packet size per connected master and slave (bytes)
system.tol2bus.pkt_size::total                4838242                       # Cumulative packet size per connected master and slave (bytes)
system.tol2bus.snoops                           28375                       # Total snoops (count)
system.tol2bus.snoop_fanout::samples           132951                       # Request fanout histogram
system.tol2bus.snoop_fanout::mean            7.209491                       # Request fanout histogram
system.tol2bus.snoop_fanout::stdev           0.406947                       # Request fanout histogram
system.tol2bus.snoop_fanout::underflows             0      0.00%      0.00% # Request fanout histogram
system.tol2bus.snoop_fanout::0                      0      0.00%      0.00% # Request fanout histogram
system.tol2bus.snoop_fanout::1                      0      0.00%      0.00% # Request fanout histogram
system.tol2bus.snoop_fanout::2                      0      0.00%      0.00% # Request fanout histogram
system.tol2bus.snoop_fanout::3                      0      0.00%      0.00% # Request fanout histogram
system.tol2bus.snoop_fanout::4                      0      0.00%      0.00% # Request fanout histogram
system.tol2bus.snoop_fanout::5                      0      0.00%      0.00% # Request fanout histogram
system.tol2bus.snoop_fanout::6                      0      0.00%      0.00% # Request fanout histogram
system.tol2bus.snoop_fanout::7                 105099     79.05%     79.05% # Request fanout histogram
system.tol2bus.snoop_fanout::8                  27852     20.95%    100.00% # Request fanout histogram
system.tol2bus.snoop_fanout::overflows              0      0.00%    100.00% # Request fanout histogram
system.tol2bus.snoop_fanout::min_value              7                       # Request fanout histogram
system.tol2bus.snoop_fanout::max_value              8                       # Request fanout histogram
system.tol2bus.snoop_fanout::total             132951                       # Request fanout histogram
system.tol2bus.reqLayer0.occupancy           76292000                       # Layer occupancy (ticks)
system.tol2bus.reqLayer0.utilization              1.2                       # Layer utilization (%)
system.tol2bus.respLayer0.occupancy          14954991                       # Layer occupancy (ticks)
system.tol2bus.respLayer0.utilization             0.2                       # Layer utilization (%)
system.tol2bus.respLayer1.occupancy          29971488                       # Layer occupancy (ticks)
system.tol2bus.respLayer1.utilization             0.5                       # Layer utilization (%)
system.tol2bus.respLayer2.occupancy           2375994                       # Layer occupancy (ticks)
system.tol2bus.respLayer2.utilization             0.0                       # Layer utilization (%)
system.tol2bus.respLayer3.occupancy           4949485                       # Layer occupancy (ticks)
system.tol2bus.respLayer3.utilization             0.1                       # Layer utilization (%)
system.tol2bus.respLayer4.occupancy           6910500                       # Layer occupancy (ticks)
system.tol2bus.respLayer4.utilization             0.1                       # Layer utilization (%)
system.tol2bus.respLayer5.occupancy          19930998                       # Layer occupancy (ticks)
system.tol2bus.respLayer5.utilization             0.3                       # Layer utilization (%)
system.tol2bus.respLayer6.occupancy             74495                       # Layer occupancy (ticks)
system.tol2bus.respLayer6.utilization             0.0                       # Layer utilization (%)
system.tol2bus.respLayer7.occupancy             93493                       # Layer occupancy (ticks)
system.tol2bus.respLayer7.utilization             0.0                       # Layer utilization (%)
system.tsunami.ethernet.descDMAReads                0                       # Number of descriptors the device read w/ DMA
system.tsunami.ethernet.descDMAWrites               0                       # Number of descriptors the device wrote w/ DMA
system.tsunami.ethernet.descDmaReadBytes            0                       # number of descriptor bytes read w/ DMA
system.tsunami.ethernet.descDmaWriteBytes            0                       # number of descriptor bytes write w/ DMA
system.tsunami.ethernet.postedSwi                   0                       # number of software interrupts posted to CPU
system.tsunami.ethernet.coalescedSwi              nan                       # average number of Swi's coalesced into each post
system.tsunami.ethernet.totalSwi                    0                       # total number of Swi written to ISR
system.tsunami.ethernet.postedRxIdle                0                       # number of rxIdle interrupts posted to CPU
system.tsunami.ethernet.coalescedRxIdle           nan                       # average number of RxIdle's coalesced into each post
system.tsunami.ethernet.totalRxIdle                 0                       # total number of RxIdle written to ISR
system.tsunami.ethernet.postedRxOk                  0                       # number of RxOk interrupts posted to CPU
system.tsunami.ethernet.coalescedRxOk             nan                       # average number of RxOk's coalesced into each post
system.tsunami.ethernet.totalRxOk                   0                       # total number of RxOk written to ISR
system.tsunami.ethernet.postedRxDesc                0                       # number of RxDesc interrupts posted to CPU
system.tsunami.ethernet.coalescedRxDesc           nan                       # average number of RxDesc's coalesced into each post
system.tsunami.ethernet.totalRxDesc                 0                       # total number of RxDesc written to ISR
system.tsunami.ethernet.postedTxOk                  0                       # number of TxOk interrupts posted to CPU
system.tsunami.ethernet.coalescedTxOk             nan                       # average number of TxOk's coalesced into each post
system.tsunami.ethernet.totalTxOk                   0                       # total number of TxOk written to ISR
system.tsunami.ethernet.postedTxIdle                0                       # number of TxIdle interrupts posted to CPU
system.tsunami.ethernet.coalescedTxIdle           nan                       # average number of TxIdle's coalesced into each post
system.tsunami.ethernet.totalTxIdle                 0                       # total number of TxIdle written to ISR
system.tsunami.ethernet.postedTxDesc                0                       # number of TxDesc interrupts posted to CPU
system.tsunami.ethernet.coalescedTxDesc           nan                       # average number of TxDesc's coalesced into each post
system.tsunami.ethernet.totalTxDesc                 0                       # total number of TxDesc written to ISR
system.tsunami.ethernet.postedRxOrn                 0                       # number of RxOrn posted to CPU
system.tsunami.ethernet.coalescedRxOrn            nan                       # average number of RxOrn's coalesced into each post
system.tsunami.ethernet.totalRxOrn                  0                       # total number of RxOrn written to ISR
system.tsunami.ethernet.coalescedTotal            nan                       # average number of interrupts coalesced into each post
system.tsunami.ethernet.postedInterrupts            0                       # number of posts to CPU
system.tsunami.ethernet.droppedPackets              0                       # number of packets dropped

---------- End Simulation Statistics   ----------
