gem5 Simulator System.  http://gem5.org
gem5 is copyrighted software; use the --copyright option for details.

gem5 compiled Jun  4 2012 11:56:32
gem5 started Jun  4 2012 14:43:05
gem5 executing on zizzer
command line: build/ALPHA_MOESI_CMP_token/gem5.opt -d build/ALPHA_MOESI_CMP_token/tests/opt/quick/se/60.rubytest/alpha/linux/rubytest-ruby-MOESI_CMP_token -re tests/run.py build/ALPHA_MOESI_CMP_token/tests/opt/quick/se/60.rubytest/alpha/linux/rubytest-ruby-MOESI_CMP_token
Global frequency set at 1000000000 ticks per second
info: Entering event queue @ 0.  Starting simulation...
Exiting @ tick 259241 because Ruby Tester completed
