Redirecting stdout to build/SPARC/tests/opt/quick/se/40.m5threads-test-atomic/sparc/linux/o3-timing-mp/simout
Redirecting stderr to build/SPARC/tests/opt/quick/se/40.m5threads-test-atomic/sparc/linux/o3-timing-mp/simerr
gem5 Simulator System.  http://gem5.org
gem5 is copyrighted software; use the --copyright option for details.

gem5 compiled Mar 29 2017 21:12:17
gem5 started Mar 29 2017 21:12:27
gem5 executing on gabeblack-desktop.mtv.corp.google.com, pid 42630
command line: /usr/local/google/home/gabeblack/gem5/gem5-public/build/SPARC/gem5.opt -d build/SPARC/tests/opt/quick/se/40.m5threads-test-atomic/sparc/linux/o3-timing-mp --stats-file 'text://stats.txt?desc=False' -re /usr/local/google/home/gabeblack/gem5/gem5-public/tests/testing/../run.py quick/se/40.m5threads-test-atomic/sparc/linux/o3-timing-mp

Global frequency set at 1000000000000 ticks per second
Init done
[Iteration 1, Thread 1] Got lock
[Iteration 1, Thread 1] Critical section done, previously next=0, now next=1
[Iteration 1, Thread 3] Got lock
[Iteration 1, Thread 3] Critical section done, previously next=1, now next=3
[Iteration 1, Thread 2] Got lock
[Iteration 1, Thread 2] Critical section done, previously next=3, now next=2
Iteration 1 completed
[Iteration 2, Thread 3] Got lock
[Iteration 2, Thread 3] Critical section done, previously next=0, now next=3
[Iteration 2, Thread 2] Got lock
[Iteration 2, Thread 2] Critical section done, previously next=3, now next=2
[Iteration 2, Thread 1] Got lock
[Iteration 2, Thread 1] Critical section done, previously next=2, now next=1
Iteration 2 completed
[Iteration 3, Thread 2] Got lock
[Iteration 3, Thread 2] Critical section done, previously next=0, now next=2
[Iteration 3, Thread 3] Got lock
[Iteration 3, Thread 3] Critical section done, previously next=2, now next=3
[Iteration 3, Thread 1] Got lock
[Iteration 3, Thread 1] Critical section done, previously next=3, now next=1
Iteration 3 completed
[Iteration 4, Thread 1] Got lock
[Iteration 4, Thread 1] Critical section done, previously next=0, now next=1
[Iteration 4, Thread 3] Got lock
[Iteration 4, Thread 3] Critical section done, previously next=1, now next=3
[Iteration 4, Thread 2] Got lock
[Iteration 4, Thread 2] Critical section done, previously next=3, now next=2
Iteration 4 completed
[Iteration 5, Thread 1] Got lock
[Iteration 5, Thread 1] Critical section done, previously next=0, now next=1
[Iteration 5, Thread 2] Got lock
[Iteration 5, Thread 2] Critical section done, previously next=1, now next=2
[Iteration 5, Thread 3] Got lock
[Iteration 5, Thread 3] Critical section done, previously next=2, now next=3
Iteration 5 completed
[Iteration 6, Thread 3] Got lock
[Iteration 6, Thread 3] Critical section done, previously next=0, now next=3
[Iteration 6, Thread 2] Got lock
[Iteration 6, Thread 2] Critical section done, previously next=3, now next=2
[Iteration 6, Thread 1] Got lock
[Iteration 6, Thread 1] Critical section done, previously next=2, now next=1
Iteration 6 completed
[Iteration 7, Thread 3] Got lock
[Iteration 7, Thread 3] Critical section done, previously next=0, now next=3
[Iteration 7, Thread 2] Got lock
[Iteration 7, Thread 2] Critical section done, previously next=3, now next=2
[Iteration 7, Thread 1] Got lock
[Iteration 7, Thread 1] Critical section done, previously next=2, now next=1
Iteration 7 completed
[Iteration 8, Thread 3] Got lock
[Iteration 8, Thread 3] Critical section done, previously next=0, now next=3
[Iteration 8, Thread 2] Got lock
[Iteration 8, Thread 2] Critical section done, previously next=3, now next=2
[Iteration 8, Thread 1] Got lock
[Iteration 8, Thread 1] Critical section done, previously next=2, now next=1
Iteration 8 completed
[Iteration 9, Thread 1] Got lock
[Iteration 9, Thread 1] Critical section done, previously next=0, now next=1
[Iteration 9, Thread 2] Got lock
[Iteration 9, Thread 2] Critical section done, previously next=1, now next=2
[Iteration 9, Thread 3] Got lock
[Iteration 9, Thread 3] Critical section done, previously next=2, now next=3
Iteration 9 completed
[Iteration 10, Thread 3] Got lock
[Iteration 10, Thread 3] Critical section done, previously next=0, now next=3
[Iteration 10, Thread 2] Got lock
[Iteration 10, Thread 2] Critical section done, previously next=3, now next=2
[Iteration 10, Thread 1] Got lock
[Iteration 10, Thread 1] Critical section done, previously next=2, now next=1
Iteration 10 completed
PASSED :-)
Exiting @ tick 126524000 because exiting with last active thread context
