
---------- Begin Simulation Statistics ----------
sim_seconds                                  1.897471                       # Number of seconds simulated
sim_ticks                                1897470973500                       # Number of ticks simulated
sim_freq                                 1000000000000                       # Frequency of simulated ticks
host_inst_rate                                 112670                       # Simulator instruction rate (inst/s)
host_tick_rate                             3808310962                       # Simulator tick rate (ticks/s)
host_mem_usage                                 344004                       # Number of bytes of host memory used
host_seconds                                   498.24                       # Real time elapsed on the host
sim_insts                                    56137023                       # Number of instructions simulated
system.l2c.replacements                        397425                       # number of replacements
system.l2c.tagsinuse                     35089.523512                       # Cycle average of tags in use
system.l2c.total_refs                         2483901                       # Total number of references to valid blocks.
system.l2c.sampled_refs                        433413                       # Sample count of references to valid blocks.
system.l2c.avg_refs                          5.731026                       # Average number of references to valid blocks.
system.l2c.warmup_cycle                    9244135000                       # Cycle when the warmup percentage was hit.
system.l2c.occ_blocks::0                 11999.654790                       # Average occupied blocks per context
system.l2c.occ_blocks::1                   233.124353                       # Average occupied blocks per context
system.l2c.occ_blocks::2                 22856.744369                       # Average occupied blocks per context
system.l2c.occ_percent::0                    0.183100                       # Average percentage of cache occupancy
system.l2c.occ_percent::1                    0.003557                       # Average percentage of cache occupancy
system.l2c.occ_percent::2                    0.348766                       # Average percentage of cache occupancy
system.l2c.ReadReq_hits::0                    1722706                       # number of ReadReq hits
system.l2c.ReadReq_hits::1                     146059                       # number of ReadReq hits
system.l2c.ReadReq_hits::total                1868765                       # number of ReadReq hits
system.l2c.Writeback_hits::0                   827102                       # number of Writeback hits
system.l2c.Writeback_hits::total               827102                       # number of Writeback hits
system.l2c.UpgradeReq_hits::0                     179                       # number of UpgradeReq hits
system.l2c.UpgradeReq_hits::1                      47                       # number of UpgradeReq hits
system.l2c.UpgradeReq_hits::total                 226                       # number of UpgradeReq hits
system.l2c.SCUpgradeReq_hits::0                    26                       # number of SCUpgradeReq hits
system.l2c.SCUpgradeReq_hits::1                    27                       # number of SCUpgradeReq hits
system.l2c.SCUpgradeReq_hits::total                53                       # number of SCUpgradeReq hits
system.l2c.ReadExReq_hits::0                   168351                       # number of ReadExReq hits
system.l2c.ReadExReq_hits::1                    11011                       # number of ReadExReq hits
system.l2c.ReadExReq_hits::total               179362                       # number of ReadExReq hits
system.l2c.demand_hits::0                     1891057                       # number of demand (read+write) hits
system.l2c.demand_hits::1                      157070                       # number of demand (read+write) hits
system.l2c.demand_hits::2                           0                       # number of demand (read+write) hits
system.l2c.demand_hits::total                 2048127                       # number of demand (read+write) hits
system.l2c.overall_hits::0                    1891057                       # number of overall hits
system.l2c.overall_hits::1                     157070                       # number of overall hits
system.l2c.overall_hits::2                          0                       # number of overall hits
system.l2c.overall_hits::total                2048127                       # number of overall hits
system.l2c.ReadReq_misses::0                   305325                       # number of ReadReq misses
system.l2c.ReadReq_misses::1                     4048                       # number of ReadReq misses
system.l2c.ReadReq_misses::total               309373                       # number of ReadReq misses
system.l2c.UpgradeReq_misses::0                  2451                       # number of UpgradeReq misses
system.l2c.UpgradeReq_misses::1                   556                       # number of UpgradeReq misses
system.l2c.UpgradeReq_misses::total              3007                       # number of UpgradeReq misses
system.l2c.SCUpgradeReq_misses::0                  48                       # number of SCUpgradeReq misses
system.l2c.SCUpgradeReq_misses::1                  82                       # number of SCUpgradeReq misses
system.l2c.SCUpgradeReq_misses::total             130                       # number of SCUpgradeReq misses
system.l2c.ReadExReq_misses::0                 113992                       # number of ReadExReq misses
system.l2c.ReadExReq_misses::1                  10735                       # number of ReadExReq misses
system.l2c.ReadExReq_misses::total             124727                       # number of ReadExReq misses
system.l2c.demand_misses::0                    419317                       # number of demand (read+write) misses
system.l2c.demand_misses::1                     14783                       # number of demand (read+write) misses
system.l2c.demand_misses::2                         0                       # number of demand (read+write) misses
system.l2c.demand_misses::total                434100                       # number of demand (read+write) misses
system.l2c.overall_misses::0                   419317                       # number of overall misses
system.l2c.overall_misses::1                    14783                       # number of overall misses
system.l2c.overall_misses::2                        0                       # number of overall misses
system.l2c.overall_misses::total               434100                       # number of overall misses
system.l2c.ReadReq_miss_latency           16104881500                       # number of ReadReq miss cycles
system.l2c.UpgradeReq_miss_latency            3975000                       # number of UpgradeReq miss cycles
system.l2c.SCUpgradeReq_miss_latency           681000                       # number of SCUpgradeReq miss cycles
system.l2c.ReadExReq_miss_latency          6543645500                       # number of ReadExReq miss cycles
system.l2c.demand_miss_latency            22648527000                       # number of demand (read+write) miss cycles
system.l2c.overall_miss_latency           22648527000                       # number of overall miss cycles
system.l2c.ReadReq_accesses::0                2028031                       # number of ReadReq accesses(hits+misses)
system.l2c.ReadReq_accesses::1                 150107                       # number of ReadReq accesses(hits+misses)
system.l2c.ReadReq_accesses::total            2178138                       # number of ReadReq accesses(hits+misses)
system.l2c.Writeback_accesses::0               827102                       # number of Writeback accesses(hits+misses)
system.l2c.Writeback_accesses::total           827102                       # number of Writeback accesses(hits+misses)
system.l2c.UpgradeReq_accesses::0                2630                       # number of UpgradeReq accesses(hits+misses)
system.l2c.UpgradeReq_accesses::1                 603                       # number of UpgradeReq accesses(hits+misses)
system.l2c.UpgradeReq_accesses::total            3233                       # number of UpgradeReq accesses(hits+misses)
system.l2c.SCUpgradeReq_accesses::0                74                       # number of SCUpgradeReq accesses(hits+misses)
system.l2c.SCUpgradeReq_accesses::1               109                       # number of SCUpgradeReq accesses(hits+misses)
system.l2c.SCUpgradeReq_accesses::total           183                       # number of SCUpgradeReq accesses(hits+misses)
system.l2c.ReadExReq_accesses::0               282343                       # number of ReadExReq accesses(hits+misses)
system.l2c.ReadExReq_accesses::1                21746                       # number of ReadExReq accesses(hits+misses)
system.l2c.ReadExReq_accesses::total           304089                       # number of ReadExReq accesses(hits+misses)
system.l2c.demand_accesses::0                 2310374                       # number of demand (read+write) accesses
system.l2c.demand_accesses::1                  171853                       # number of demand (read+write) accesses
system.l2c.demand_accesses::2                       0                       # number of demand (read+write) accesses
system.l2c.demand_accesses::total             2482227                       # number of demand (read+write) accesses
system.l2c.overall_accesses::0                2310374                       # number of overall (read+write) accesses
system.l2c.overall_accesses::1                 171853                       # number of overall (read+write) accesses
system.l2c.overall_accesses::2                      0                       # number of overall (read+write) accesses
system.l2c.overall_accesses::total            2482227                       # number of overall (read+write) accesses
system.l2c.ReadReq_miss_rate::0              0.150552                       # miss rate for ReadReq accesses
system.l2c.ReadReq_miss_rate::1              0.026967                       # miss rate for ReadReq accesses
system.l2c.UpgradeReq_miss_rate::0           0.931939                       # miss rate for UpgradeReq accesses
system.l2c.UpgradeReq_miss_rate::1           0.922056                       # miss rate for UpgradeReq accesses
system.l2c.SCUpgradeReq_miss_rate::0         0.648649                       # miss rate for SCUpgradeReq accesses
system.l2c.SCUpgradeReq_miss_rate::1         0.752294                       # miss rate for SCUpgradeReq accesses
system.l2c.ReadExReq_miss_rate::0            0.403736                       # miss rate for ReadExReq accesses
system.l2c.ReadExReq_miss_rate::1            0.493654                       # miss rate for ReadExReq accesses
system.l2c.demand_miss_rate::0               0.181493                       # miss rate for demand accesses
system.l2c.demand_miss_rate::1               0.086021                       # miss rate for demand accesses
system.l2c.demand_miss_rate::2               no_value                       # miss rate for demand accesses
system.l2c.demand_miss_rate::total           no_value                       # miss rate for demand accesses
system.l2c.overall_miss_rate::0              0.181493                       # miss rate for overall accesses
system.l2c.overall_miss_rate::1              0.086021                       # miss rate for overall accesses
system.l2c.overall_miss_rate::2              no_value                       # miss rate for overall accesses
system.l2c.overall_miss_rate::total          no_value                       # miss rate for overall accesses
system.l2c.ReadReq_avg_miss_latency::0   52746.684680                       # average ReadReq miss latency
system.l2c.ReadReq_avg_miss_latency::1   3978478.631423                       # average ReadReq miss latency
system.l2c.ReadReq_avg_miss_latency::2            inf                       # average ReadReq miss latency
system.l2c.ReadReq_avg_miss_latency::total          inf                       # average ReadReq miss latency
system.l2c.UpgradeReq_avg_miss_latency::0  1621.787026                       # average UpgradeReq miss latency
system.l2c.UpgradeReq_avg_miss_latency::1  7149.280576                       # average UpgradeReq miss latency
system.l2c.UpgradeReq_avg_miss_latency::2          inf                       # average UpgradeReq miss latency
system.l2c.UpgradeReq_avg_miss_latency::total          inf                       # average UpgradeReq miss latency
system.l2c.SCUpgradeReq_avg_miss_latency::0 14187.500000                       # average SCUpgradeReq miss latency
system.l2c.SCUpgradeReq_avg_miss_latency::1  8304.878049                       # average SCUpgradeReq miss latency
system.l2c.SCUpgradeReq_avg_miss_latency::2          inf                       # average SCUpgradeReq miss latency
system.l2c.SCUpgradeReq_avg_miss_latency::total          inf                       # average SCUpgradeReq miss latency
system.l2c.ReadExReq_avg_miss_latency::0 57404.427504                       # average ReadExReq miss latency
system.l2c.ReadExReq_avg_miss_latency::1 609561.760596                       # average ReadExReq miss latency
system.l2c.ReadExReq_avg_miss_latency::2          inf                       # average ReadExReq miss latency
system.l2c.ReadExReq_avg_miss_latency::total          inf                       # average ReadExReq miss latency
system.l2c.demand_avg_miss_latency::0    54012.899549                       # average overall miss latency
system.l2c.demand_avg_miss_latency::1    1532065.683555                       # average overall miss latency
system.l2c.demand_avg_miss_latency::2             inf                       # average overall miss latency
system.l2c.demand_avg_miss_latency::total          inf                       # average overall miss latency
system.l2c.overall_avg_miss_latency::0   54012.899549                       # average overall miss latency
system.l2c.overall_avg_miss_latency::1   1532065.683555                       # average overall miss latency
system.l2c.overall_avg_miss_latency::2            inf                       # average overall miss latency
system.l2c.overall_avg_miss_latency::total          inf                       # average overall miss latency
system.l2c.blocked_cycles::no_mshrs                 0                       # number of cycles access was blocked
system.l2c.blocked_cycles::no_targets               0                       # number of cycles access was blocked
system.l2c.blocked::no_mshrs                        0                       # number of cycles access was blocked
system.l2c.blocked::no_targets                      0                       # number of cycles access was blocked
system.l2c.avg_blocked_cycles::no_mshrs      no_value                       # average number of cycles each access was blocked
system.l2c.avg_blocked_cycles::no_targets     no_value                       # average number of cycles each access was blocked
system.l2c.fast_writes                              0                       # number of fast writes performed
system.l2c.cache_copies                             0                       # number of cache copies performed
system.l2c.writebacks                          122219                       # number of writebacks
system.l2c.ReadReq_mshr_hits                       17                       # number of ReadReq MSHR hits
system.l2c.demand_mshr_hits                        17                       # number of demand (read+write) MSHR hits
system.l2c.overall_mshr_hits                       17                       # number of overall MSHR hits
system.l2c.ReadReq_mshr_misses                 309356                       # number of ReadReq MSHR misses
system.l2c.UpgradeReq_mshr_misses                3007                       # number of UpgradeReq MSHR misses
system.l2c.SCUpgradeReq_mshr_misses               130                       # number of SCUpgradeReq MSHR misses
system.l2c.ReadExReq_mshr_misses               124727                       # number of ReadExReq MSHR misses
system.l2c.demand_mshr_misses                  434083                       # number of demand (read+write) MSHR misses
system.l2c.overall_mshr_misses                 434083                       # number of overall MSHR misses
system.l2c.overall_mshr_uncacheable_misses            0                       # number of overall MSHR uncacheable misses
system.l2c.ReadReq_mshr_miss_latency      12384389500                       # number of ReadReq MSHR miss cycles
system.l2c.UpgradeReq_mshr_miss_latency     120345500                       # number of UpgradeReq MSHR miss cycles
system.l2c.SCUpgradeReq_mshr_miss_latency      5200000                       # number of SCUpgradeReq MSHR miss cycles
system.l2c.ReadExReq_mshr_miss_latency     5026892500                       # number of ReadExReq MSHR miss cycles
system.l2c.demand_mshr_miss_latency       17411282000                       # number of demand (read+write) MSHR miss cycles
system.l2c.overall_mshr_miss_latency      17411282000                       # number of overall MSHR miss cycles
system.l2c.ReadReq_mshr_uncacheable_latency    838237000                       # number of ReadReq MSHR uncacheable cycles
system.l2c.WriteReq_mshr_uncacheable_latency   1420706998                       # number of WriteReq MSHR uncacheable cycles
system.l2c.overall_mshr_uncacheable_latency   2258943998                       # number of overall MSHR uncacheable cycles
system.l2c.ReadReq_mshr_miss_rate::0         0.152540                       # mshr miss rate for ReadReq accesses
system.l2c.ReadReq_mshr_miss_rate::1         2.060903                       # mshr miss rate for ReadReq accesses
system.l2c.ReadReq_mshr_miss_rate::2              inf                       # mshr miss rate for ReadReq accesses
system.l2c.ReadReq_mshr_miss_rate::total          inf                       # mshr miss rate for ReadReq accesses
system.l2c.UpgradeReq_mshr_miss_rate::0      1.143346                       # mshr miss rate for UpgradeReq accesses
system.l2c.UpgradeReq_mshr_miss_rate::1      4.986733                       # mshr miss rate for UpgradeReq accesses
system.l2c.UpgradeReq_mshr_miss_rate::2           inf                       # mshr miss rate for UpgradeReq accesses
system.l2c.UpgradeReq_mshr_miss_rate::total          inf                       # mshr miss rate for UpgradeReq accesses
system.l2c.SCUpgradeReq_mshr_miss_rate::0     1.756757                       # mshr miss rate for SCUpgradeReq accesses
system.l2c.SCUpgradeReq_mshr_miss_rate::1     1.192661                       # mshr miss rate for SCUpgradeReq accesses
system.l2c.SCUpgradeReq_mshr_miss_rate::2          inf                       # mshr miss rate for SCUpgradeReq accesses
system.l2c.SCUpgradeReq_mshr_miss_rate::total          inf                       # mshr miss rate for SCUpgradeReq accesses
system.l2c.ReadExReq_mshr_miss_rate::0       0.441757                       # mshr miss rate for ReadExReq accesses
system.l2c.ReadExReq_mshr_miss_rate::1       5.735630                       # mshr miss rate for ReadExReq accesses
system.l2c.ReadExReq_mshr_miss_rate::2            inf                       # mshr miss rate for ReadExReq accesses
system.l2c.ReadExReq_mshr_miss_rate::total          inf                       # mshr miss rate for ReadExReq accesses
system.l2c.demand_mshr_miss_rate::0          0.187884                       # mshr miss rate for demand accesses
system.l2c.demand_mshr_miss_rate::1          2.525897                       # mshr miss rate for demand accesses
system.l2c.demand_mshr_miss_rate::2               inf                       # mshr miss rate for demand accesses
system.l2c.demand_mshr_miss_rate::total           inf                       # mshr miss rate for demand accesses
system.l2c.overall_mshr_miss_rate::0         0.187884                       # mshr miss rate for overall accesses
system.l2c.overall_mshr_miss_rate::1         2.525897                       # mshr miss rate for overall accesses
system.l2c.overall_mshr_miss_rate::2              inf                       # mshr miss rate for overall accesses
system.l2c.overall_mshr_miss_rate::total          inf                       # mshr miss rate for overall accesses
system.l2c.ReadReq_avg_mshr_miss_latency 40032.808480                       # average ReadReq mshr miss latency
system.l2c.UpgradeReq_avg_mshr_miss_latency 40021.782507                       # average UpgradeReq mshr miss latency
system.l2c.SCUpgradeReq_avg_mshr_miss_latency        40000                       # average SCUpgradeReq mshr miss latency
system.l2c.ReadExReq_avg_mshr_miss_latency 40303.162106                       # average ReadExReq mshr miss latency
system.l2c.demand_avg_mshr_miss_latency  40110.490390                       # average overall mshr miss latency
system.l2c.overall_avg_mshr_miss_latency 40110.490390                       # average overall mshr miss latency
system.l2c.ReadReq_avg_mshr_uncacheable_latency          inf                       # average ReadReq mshr uncacheable latency
system.l2c.WriteReq_avg_mshr_uncacheable_latency          inf                       # average WriteReq mshr uncacheable latency
system.l2c.overall_avg_mshr_uncacheable_latency          inf                       # average overall mshr uncacheable latency
system.l2c.mshr_cap_events                          0                       # number of times MSHR cap was activated
system.l2c.soft_prefetch_mshr_full                  0                       # number of mshr full events for SW prefetching instrutions
system.l2c.no_allocate_misses                       0                       # Number of misses that were no-allocate
system.iocache.replacements                     41699                       # number of replacements
system.iocache.tagsinuse                     0.463134                       # Cycle average of tags in use
system.iocache.total_refs                           0                       # Total number of references to valid blocks.
system.iocache.sampled_refs                     41715                       # Sample count of references to valid blocks.
system.iocache.avg_refs                             0                       # Average number of references to valid blocks.
system.iocache.warmup_cycle              1709323096000                       # Cycle when the warmup percentage was hit.
system.iocache.occ_blocks::1                 0.463134                       # Average occupied blocks per context
system.iocache.occ_percent::1                0.028946                       # Average percentage of cache occupancy
system.iocache.demand_hits::0                       0                       # number of demand (read+write) hits
system.iocache.demand_hits::1                       0                       # number of demand (read+write) hits
system.iocache.demand_hits::total                   0                       # number of demand (read+write) hits
system.iocache.overall_hits::0                      0                       # number of overall hits
system.iocache.overall_hits::1                      0                       # number of overall hits
system.iocache.overall_hits::total                  0                       # number of overall hits
system.iocache.ReadReq_misses::1                  179                       # number of ReadReq misses
system.iocache.ReadReq_misses::total              179                       # number of ReadReq misses
system.iocache.WriteReq_misses::1               41552                       # number of WriteReq misses
system.iocache.WriteReq_misses::total           41552                       # number of WriteReq misses
system.iocache.demand_misses::0                     0                       # number of demand (read+write) misses
system.iocache.demand_misses::1                 41731                       # number of demand (read+write) misses
system.iocache.demand_misses::total             41731                       # number of demand (read+write) misses
system.iocache.overall_misses::0                    0                       # number of overall misses
system.iocache.overall_misses::1                41731                       # number of overall misses
system.iocache.overall_misses::total            41731                       # number of overall misses
system.iocache.ReadReq_miss_latency          20616998                       # number of ReadReq miss cycles
system.iocache.WriteReq_miss_latency       5721081806                       # number of WriteReq miss cycles
system.iocache.demand_miss_latency         5741698804                       # number of demand (read+write) miss cycles
system.iocache.overall_miss_latency        5741698804                       # number of overall miss cycles
system.iocache.ReadReq_accesses::1                179                       # number of ReadReq accesses(hits+misses)
system.iocache.ReadReq_accesses::total            179                       # number of ReadReq accesses(hits+misses)
system.iocache.WriteReq_accesses::1             41552                       # number of WriteReq accesses(hits+misses)
system.iocache.WriteReq_accesses::total         41552                       # number of WriteReq accesses(hits+misses)
system.iocache.demand_accesses::0                   0                       # number of demand (read+write) accesses
system.iocache.demand_accesses::1               41731                       # number of demand (read+write) accesses
system.iocache.demand_accesses::total           41731                       # number of demand (read+write) accesses
system.iocache.overall_accesses::0                  0                       # number of overall (read+write) accesses
system.iocache.overall_accesses::1              41731                       # number of overall (read+write) accesses
system.iocache.overall_accesses::total          41731                       # number of overall (read+write) accesses
system.iocache.ReadReq_miss_rate::1                 1                       # miss rate for ReadReq accesses
system.iocache.WriteReq_miss_rate::1                1                       # miss rate for WriteReq accesses
system.iocache.demand_miss_rate::0           no_value                       # miss rate for demand accesses
system.iocache.demand_miss_rate::1                  1                       # miss rate for demand accesses
system.iocache.demand_miss_rate::total       no_value                       # miss rate for demand accesses
system.iocache.overall_miss_rate::0          no_value                       # miss rate for overall accesses
system.iocache.overall_miss_rate::1                 1                       # miss rate for overall accesses
system.iocache.overall_miss_rate::total      no_value                       # miss rate for overall accesses
system.iocache.ReadReq_avg_miss_latency::0          inf                       # average ReadReq miss latency
system.iocache.ReadReq_avg_miss_latency::1 115178.759777                       # average ReadReq miss latency
system.iocache.ReadReq_avg_miss_latency::total          inf                       # average ReadReq miss latency
system.iocache.WriteReq_avg_miss_latency::0          inf                       # average WriteReq miss latency
system.iocache.WriteReq_avg_miss_latency::1 137684.872112                       # average WriteReq miss latency
system.iocache.WriteReq_avg_miss_latency::total          inf                       # average WriteReq miss latency
system.iocache.demand_avg_miss_latency::0          inf                       # average overall miss latency
system.iocache.demand_avg_miss_latency::1 137588.334907                       # average overall miss latency
system.iocache.demand_avg_miss_latency::total          inf                       # average overall miss latency
system.iocache.overall_avg_miss_latency::0          inf                       # average overall miss latency
system.iocache.overall_avg_miss_latency::1 137588.334907                       # average overall miss latency
system.iocache.overall_avg_miss_latency::total          inf                       # average overall miss latency
system.iocache.blocked_cycles::no_mshrs      64637068                       # number of cycles access was blocked
system.iocache.blocked_cycles::no_targets            0                       # number of cycles access was blocked
system.iocache.blocked::no_mshrs                10458                       # number of cycles access was blocked
system.iocache.blocked::no_targets                  0                       # number of cycles access was blocked
system.iocache.avg_blocked_cycles::no_mshrs  6180.633773                       # average number of cycles each access was blocked
system.iocache.avg_blocked_cycles::no_targets     no_value                       # average number of cycles each access was blocked
system.iocache.fast_writes                          0                       # number of fast writes performed
system.iocache.cache_copies                         0                       # number of cache copies performed
system.iocache.writebacks                       41520                       # number of writebacks
system.iocache.demand_mshr_hits                     0                       # number of demand (read+write) MSHR hits
system.iocache.overall_mshr_hits                    0                       # number of overall MSHR hits
system.iocache.ReadReq_mshr_misses                179                       # number of ReadReq MSHR misses
system.iocache.WriteReq_mshr_misses             41552                       # number of WriteReq MSHR misses
system.iocache.demand_mshr_misses               41731                       # number of demand (read+write) MSHR misses
system.iocache.overall_mshr_misses              41731                       # number of overall MSHR misses
system.iocache.overall_mshr_uncacheable_misses            0                       # number of overall MSHR uncacheable misses
system.iocache.ReadReq_mshr_miss_latency     11308998                       # number of ReadReq MSHR miss cycles
system.iocache.WriteReq_mshr_miss_latency   3560223994                       # number of WriteReq MSHR miss cycles
system.iocache.demand_mshr_miss_latency    3571532992                       # number of demand (read+write) MSHR miss cycles
system.iocache.overall_mshr_miss_latency   3571532992                       # number of overall MSHR miss cycles
system.iocache.overall_mshr_uncacheable_latency            0                       # number of overall MSHR uncacheable cycles
system.iocache.ReadReq_mshr_miss_rate::0          inf                       # mshr miss rate for ReadReq accesses
system.iocache.ReadReq_mshr_miss_rate::1            1                       # mshr miss rate for ReadReq accesses
system.iocache.ReadReq_mshr_miss_rate::total          inf                       # mshr miss rate for ReadReq accesses
system.iocache.WriteReq_mshr_miss_rate::0          inf                       # mshr miss rate for WriteReq accesses
system.iocache.WriteReq_mshr_miss_rate::1            1                       # mshr miss rate for WriteReq accesses
system.iocache.WriteReq_mshr_miss_rate::total          inf                       # mshr miss rate for WriteReq accesses
system.iocache.demand_mshr_miss_rate::0           inf                       # mshr miss rate for demand accesses
system.iocache.demand_mshr_miss_rate::1             1                       # mshr miss rate for demand accesses
system.iocache.demand_mshr_miss_rate::total          inf                       # mshr miss rate for demand accesses
system.iocache.overall_mshr_miss_rate::0          inf                       # mshr miss rate for overall accesses
system.iocache.overall_mshr_miss_rate::1            1                       # mshr miss rate for overall accesses
system.iocache.overall_mshr_miss_rate::total          inf                       # mshr miss rate for overall accesses
system.iocache.ReadReq_avg_mshr_miss_latency 63178.759777                       # average ReadReq mshr miss latency
system.iocache.WriteReq_avg_mshr_miss_latency 85681.170437                       # average WriteReq mshr miss latency
system.iocache.demand_avg_mshr_miss_latency 85584.649110                       # average overall mshr miss latency
system.iocache.overall_avg_mshr_miss_latency 85584.649110                       # average overall mshr miss latency
system.iocache.overall_avg_mshr_uncacheable_latency     no_value                       # average overall mshr uncacheable latency
system.iocache.mshr_cap_events                      0                       # number of times MSHR cap was activated
system.iocache.soft_prefetch_mshr_full              0                       # number of mshr full events for SW prefetching instrutions
system.iocache.no_allocate_misses                   0                       # Number of misses that were no-allocate
system.disk0.dma_read_full_pages                    0                       # Number of full page size DMA reads (not PRD).
system.disk0.dma_read_bytes                      1024                       # Number of bytes transfered via DMA reads (not PRD).
system.disk0.dma_read_txs                           1                       # Number of DMA read transactions (not PRD).
system.disk0.dma_write_full_pages                 298                       # Number of full page size DMA writes.
system.disk0.dma_write_bytes                  2651136                       # Number of bytes transfered via DMA writes.
system.disk0.dma_write_txs                        395                       # Number of DMA write transactions.
system.disk2.dma_read_full_pages                    0                       # Number of full page size DMA reads (not PRD).
system.disk2.dma_read_bytes                         0                       # Number of bytes transfered via DMA reads (not PRD).
system.disk2.dma_read_txs                           0                       # Number of DMA read transactions (not PRD).
system.disk2.dma_write_full_pages                   1                       # Number of full page size DMA writes.
system.disk2.dma_write_bytes                     8192                       # Number of bytes transfered via DMA writes.
system.disk2.dma_write_txs                          1                       # Number of DMA write transactions.
system.cpu0.dtb.fetch_hits                          0                       # ITB hits
system.cpu0.dtb.fetch_misses                        0                       # ITB misses
system.cpu0.dtb.fetch_acv                           0                       # ITB acv
system.cpu0.dtb.fetch_accesses                      0                       # ITB accesses
system.cpu0.dtb.read_hits                     9537119                       # DTB read hits
system.cpu0.dtb.read_misses                     35694                       # DTB read misses
system.cpu0.dtb.read_acv                          589                       # DTB read access violations
system.cpu0.dtb.read_accesses                  644456                       # DTB read accesses
system.cpu0.dtb.write_hits                    6201700                       # DTB write hits
system.cpu0.dtb.write_misses                     7404                       # DTB write misses
system.cpu0.dtb.write_acv                         340                       # DTB write access violations
system.cpu0.dtb.write_accesses                 219479                       # DTB write accesses
system.cpu0.dtb.data_hits                    15738819                       # DTB hits
system.cpu0.dtb.data_misses                     43098                       # DTB misses
system.cpu0.dtb.data_acv                          929                       # DTB access violations
system.cpu0.dtb.data_accesses                  863935                       # DTB accesses
system.cpu0.itb.fetch_hits                    1065001                       # ITB hits
system.cpu0.itb.fetch_misses                    28395                       # ITB misses
system.cpu0.itb.fetch_acv                         959                       # ITB acv
system.cpu0.itb.fetch_accesses                1093396                       # ITB accesses
system.cpu0.itb.read_hits                           0                       # DTB read hits
system.cpu0.itb.read_misses                         0                       # DTB read misses
system.cpu0.itb.read_acv                            0                       # DTB read access violations
system.cpu0.itb.read_accesses                       0                       # DTB read accesses
system.cpu0.itb.write_hits                          0                       # DTB write hits
system.cpu0.itb.write_misses                        0                       # DTB write misses
system.cpu0.itb.write_acv                           0                       # DTB write access violations
system.cpu0.itb.write_accesses                      0                       # DTB write accesses
system.cpu0.itb.data_hits                           0                       # DTB hits
system.cpu0.itb.data_misses                         0                       # DTB misses
system.cpu0.itb.data_acv                            0                       # DTB access violations
system.cpu0.itb.data_accesses                       0                       # DTB accesses
system.cpu0.numCycles                       112251413                       # number of cpu cycles simulated
system.cpu0.numWorkItemsStarted                     0                       # number of work items this cpu started
system.cpu0.numWorkItemsCompleted                   0                       # number of work items this cpu completed
system.cpu0.BPredUnit.lookups                13715156                       # Number of BP lookups
system.cpu0.BPredUnit.condPredicted          11502951                       # Number of conditional branches predicted
system.cpu0.BPredUnit.condIncorrect            484161                       # Number of conditional branches incorrect
system.cpu0.BPredUnit.BTBLookups             12377728                       # Number of BTB lookups
system.cpu0.BPredUnit.BTBHits                 6363664                       # Number of BTB hits
system.cpu0.BPredUnit.BTBCorrect                    0                       # Number of correct BTB predictions (this stat may not work properly.
system.cpu0.BPredUnit.usedRAS                  918279                       # Number of times the RAS was used to get a target.
system.cpu0.BPredUnit.RASInCorrect              37972                       # Number of incorrect RAS predictions.
system.cpu0.fetch.icacheStallCycles          28099564                       # Number of cycles fetch is stalled on an Icache miss
system.cpu0.fetch.Insts                      69844028                       # Number of instructions fetch has processed
system.cpu0.fetch.Branches                   13715156                       # Number of branches that fetch encountered
system.cpu0.fetch.predictedBranches           7281943                       # Number of branches that fetch has predicted taken
system.cpu0.fetch.Cycles                     13538078                       # Number of cycles fetch has run and was not squashing or blocked
system.cpu0.fetch.SquashCycles                2172072                       # Number of cycles fetch has spent squashing
system.cpu0.fetch.BlockedCycles              34812736                       # Number of cycles fetch has spent blocked
system.cpu0.fetch.MiscStallCycles               29955                       # Number of cycles fetch has spent waiting on interrupts, or bad addresses, or out of MSHRs
system.cpu0.fetch.PendingTrapStallCycles       193219                       # Number of stall cycles due to pending traps
system.cpu0.fetch.PendingQuiesceStallCycles       330912                       # Number of stall cycles due to pending quiesce instructions
system.cpu0.fetch.IcacheWaitRetryStallCycles           98                       # Number of stall cycles due to full MSHR
system.cpu0.fetch.CacheLines                  8567969                       # Number of cache lines fetched
system.cpu0.fetch.IcacheSquashes               303515                       # Number of outstanding Icache misses that were squashed
system.cpu0.fetch.rateDist::samples          78411579                       # Number of instructions fetched each cycle (Total)
system.cpu0.fetch.rateDist::mean             0.890736                       # Number of instructions fetched each cycle (Total)
system.cpu0.fetch.rateDist::stdev            2.207630                       # Number of instructions fetched each cycle (Total)
system.cpu0.fetch.rateDist::underflows              0      0.00%      0.00% # Number of instructions fetched each cycle (Total)
system.cpu0.fetch.rateDist::0                64873501     82.73%     82.73% # Number of instructions fetched each cycle (Total)
system.cpu0.fetch.rateDist::1                  956509      1.22%     83.95% # Number of instructions fetched each cycle (Total)
system.cpu0.fetch.rateDist::2                 1906420      2.43%     86.39% # Number of instructions fetched each cycle (Total)
system.cpu0.fetch.rateDist::3                  900643      1.15%     87.53% # Number of instructions fetched each cycle (Total)
system.cpu0.fetch.rateDist::4                 2836490      3.62%     91.15% # Number of instructions fetched each cycle (Total)
system.cpu0.fetch.rateDist::5                  653196      0.83%     91.98% # Number of instructions fetched each cycle (Total)
system.cpu0.fetch.rateDist::6                  748865      0.96%     92.94% # Number of instructions fetched each cycle (Total)
system.cpu0.fetch.rateDist::7                 1020020      1.30%     94.24% # Number of instructions fetched each cycle (Total)
system.cpu0.fetch.rateDist::8                 4515935      5.76%    100.00% # Number of instructions fetched each cycle (Total)
system.cpu0.fetch.rateDist::overflows               0      0.00%    100.00% # Number of instructions fetched each cycle (Total)
system.cpu0.fetch.rateDist::min_value               0                       # Number of instructions fetched each cycle (Total)
system.cpu0.fetch.rateDist::max_value               8                       # Number of instructions fetched each cycle (Total)
system.cpu0.fetch.rateDist::total            78411579                       # Number of instructions fetched each cycle (Total)
system.cpu0.fetch.branchRate                 0.122182                       # Number of branch fetches per cycle
system.cpu0.fetch.rate                       0.622211                       # Number of inst fetches per cycle
system.cpu0.decode.IdleCycles                29218734                       # Number of cycles decode is idle
system.cpu0.decode.BlockedCycles             34518564                       # Number of cycles decode is blocked
system.cpu0.decode.RunCycles                 12397503                       # Number of cycles decode is running
system.cpu0.decode.UnblockCycles               907653                       # Number of cycles decode is unblocking
system.cpu0.decode.SquashCycles               1369124                       # Number of cycles decode is squashing
system.cpu0.decode.BranchResolved              565623                       # Number of times decode resolved a branch
system.cpu0.decode.BranchMispred                38130                       # Number of times decode detected a branch misprediction
system.cpu0.decode.DecodedInsts              68326357                       # Number of instructions handled by decode
system.cpu0.decode.SquashedInsts               115471                       # Number of squashed instructions handled by decode
system.cpu0.rename.SquashCycles               1369124                       # Number of cycles rename is squashing
system.cpu0.rename.IdleCycles                30359966                       # Number of cycles rename is idle
system.cpu0.rename.BlockCycles               12420002                       # Number of cycles rename is blocking
system.cpu0.rename.serializeStallCycles      18653448                       # count of cycles rename stalled for serializing inst
system.cpu0.rename.RunCycles                 11559609                       # Number of cycles rename is running
system.cpu0.rename.UnblockCycles              4049428                       # Number of cycles rename is unblocking
system.cpu0.rename.RenamedInsts              64489639                       # Number of instructions processed by rename
system.cpu0.rename.ROBFullEvents                 6675                       # Number of times rename has blocked due to ROB full
system.cpu0.rename.IQFullEvents                459269                       # Number of times rename has blocked due to IQ full
system.cpu0.rename.LSQFullEvents              1452522                       # Number of times rename has blocked due to LSQ full
system.cpu0.rename.RenamedOperands           43185187                       # Number of destination operands rename has renamed
system.cpu0.rename.RenameLookups             78281955                       # Number of register rename lookups that rename has made
system.cpu0.rename.int_rename_lookups        77849999                       # Number of integer rename lookups
system.cpu0.rename.fp_rename_lookups           431956                       # Number of floating rename lookups
system.cpu0.rename.CommittedMaps             36504578                       # Number of HB maps that are committed
system.cpu0.rename.UndoneMaps                 6680601                       # Number of HB maps that are undone due to squashing
system.cpu0.rename.serializingInsts           1578071                       # count of serializing insts renamed
system.cpu0.rename.tempSerializingInsts        238750                       # count of temporary serializing insts renamed
system.cpu0.rename.skidInsts                 11394232                       # count of insts added to the skid buffer
system.cpu0.memDep0.insertedLoads            10044360                       # Number of loads inserted to the mem dependence unit.
system.cpu0.memDep0.insertedStores            6546770                       # Number of stores inserted to the mem dependence unit.
system.cpu0.memDep0.conflictingLoads          1193752                       # Number of conflicting loads.
system.cpu0.memDep0.conflictingStores          777018                       # Number of conflicting stores.
system.cpu0.iq.iqInstsAdded                  56531127                       # Number of instructions added to the IQ (excludes non-spec)
system.cpu0.iq.iqNonSpecInstsAdded            2009866                       # Number of non-speculative instructions added to the IQ
system.cpu0.iq.iqInstsIssued                 55005856                       # Number of instructions issued
system.cpu0.iq.iqSquashedInstsIssued           111558                       # Number of squashed instructions issued
system.cpu0.iq.iqSquashedInstsExamined        7605242                       # Number of squashed instructions iterated over during squash; mainly for profiling
system.cpu0.iq.iqSquashedOperandsExamined      3895552                       # Number of squashed operands that are examined and possibly removed from graph
system.cpu0.iq.iqSquashedNonSpecRemoved       1371310                       # Number of squashed non-spec instructions that were removed
system.cpu0.iq.issued_per_cycle::samples     78411579                       # Number of insts issued each cycle
system.cpu0.iq.issued_per_cycle::mean        0.701502                       # Number of insts issued each cycle
system.cpu0.iq.issued_per_cycle::stdev       1.348295                       # Number of insts issued each cycle
system.cpu0.iq.issued_per_cycle::underflows            0      0.00%      0.00% # Number of insts issued each cycle
system.cpu0.iq.issued_per_cycle::0           54224531     69.15%     69.15% # Number of insts issued each cycle
system.cpu0.iq.issued_per_cycle::1           10651966     13.58%     82.74% # Number of insts issued each cycle
system.cpu0.iq.issued_per_cycle::2            5211873      6.65%     89.39% # Number of insts issued each cycle
system.cpu0.iq.issued_per_cycle::3            3322855      4.24%     93.62% # Number of insts issued each cycle
system.cpu0.iq.issued_per_cycle::4            2518388      3.21%     96.83% # Number of insts issued each cycle
system.cpu0.iq.issued_per_cycle::5            1465679      1.87%     98.70% # Number of insts issued each cycle
system.cpu0.iq.issued_per_cycle::6             653633      0.83%     99.54% # Number of insts issued each cycle
system.cpu0.iq.issued_per_cycle::7             263398      0.34%     99.87% # Number of insts issued each cycle
system.cpu0.iq.issued_per_cycle::8              99256      0.13%    100.00% # Number of insts issued each cycle
system.cpu0.iq.issued_per_cycle::overflows            0      0.00%    100.00% # Number of insts issued each cycle
system.cpu0.iq.issued_per_cycle::min_value            0                       # Number of insts issued each cycle
system.cpu0.iq.issued_per_cycle::max_value            8                       # Number of insts issued each cycle
system.cpu0.iq.issued_per_cycle::total       78411579                       # Number of insts issued each cycle
system.cpu0.iq.fu_full::No_OpClass                  0      0.00%      0.00% # attempts to use FU when none available
system.cpu0.iq.fu_full::IntAlu                  63058      8.97%      8.97% # attempts to use FU when none available
system.cpu0.iq.fu_full::IntMult                     0      0.00%      8.97% # attempts to use FU when none available
system.cpu0.iq.fu_full::IntDiv                      0      0.00%      8.97% # attempts to use FU when none available
system.cpu0.iq.fu_full::FloatAdd                    0      0.00%      8.97% # attempts to use FU when none available
system.cpu0.iq.fu_full::FloatCmp                    0      0.00%      8.97% # attempts to use FU when none available
system.cpu0.iq.fu_full::FloatCvt                    0      0.00%      8.97% # attempts to use FU when none available
system.cpu0.iq.fu_full::FloatMult                   0      0.00%      8.97% # attempts to use FU when none available
system.cpu0.iq.fu_full::FloatDiv                    0      0.00%      8.97% # attempts to use FU when none available
system.cpu0.iq.fu_full::FloatSqrt                   0      0.00%      8.97% # attempts to use FU when none available
system.cpu0.iq.fu_full::SimdAdd                     0      0.00%      8.97% # attempts to use FU when none available
system.cpu0.iq.fu_full::SimdAddAcc                  0      0.00%      8.97% # attempts to use FU when none available
system.cpu0.iq.fu_full::SimdAlu                     0      0.00%      8.97% # attempts to use FU when none available
system.cpu0.iq.fu_full::SimdCmp                     0      0.00%      8.97% # attempts to use FU when none available
system.cpu0.iq.fu_full::SimdCvt                     0      0.00%      8.97% # attempts to use FU when none available
system.cpu0.iq.fu_full::SimdMisc                    0      0.00%      8.97% # attempts to use FU when none available
system.cpu0.iq.fu_full::SimdMult                    0      0.00%      8.97% # attempts to use FU when none available
system.cpu0.iq.fu_full::SimdMultAcc                 0      0.00%      8.97% # attempts to use FU when none available
system.cpu0.iq.fu_full::SimdShift                   0      0.00%      8.97% # attempts to use FU when none available
system.cpu0.iq.fu_full::SimdShiftAcc                0      0.00%      8.97% # attempts to use FU when none available
system.cpu0.iq.fu_full::SimdSqrt                    0      0.00%      8.97% # attempts to use FU when none available
system.cpu0.iq.fu_full::SimdFloatAdd                0      0.00%      8.97% # attempts to use FU when none available
system.cpu0.iq.fu_full::SimdFloatAlu                0      0.00%      8.97% # attempts to use FU when none available
system.cpu0.iq.fu_full::SimdFloatCmp                0      0.00%      8.97% # attempts to use FU when none available
system.cpu0.iq.fu_full::SimdFloatCvt                0      0.00%      8.97% # attempts to use FU when none available
system.cpu0.iq.fu_full::SimdFloatDiv                0      0.00%      8.97% # attempts to use FU when none available
system.cpu0.iq.fu_full::SimdFloatMisc               0      0.00%      8.97% # attempts to use FU when none available
system.cpu0.iq.fu_full::SimdFloatMult               0      0.00%      8.97% # attempts to use FU when none available
system.cpu0.iq.fu_full::SimdFloatMultAcc            0      0.00%      8.97% # attempts to use FU when none available
system.cpu0.iq.fu_full::SimdFloatSqrt               0      0.00%      8.97% # attempts to use FU when none available
system.cpu0.iq.fu_full::MemRead                343865     48.92%     57.90% # attempts to use FU when none available
system.cpu0.iq.fu_full::MemWrite               295935     42.10%    100.00% # attempts to use FU when none available
system.cpu0.iq.fu_full::IprAccess                   0      0.00%    100.00% # attempts to use FU when none available
system.cpu0.iq.fu_full::InstPrefetch                0      0.00%    100.00% # attempts to use FU when none available
system.cpu0.iq.FU_type_0::No_OpClass             3328      0.01%      0.01% # Type of FU issued
system.cpu0.iq.FU_type_0::IntAlu             37799296     68.72%     68.72% # Type of FU issued
system.cpu0.iq.FU_type_0::IntMult               60344      0.11%     68.83% # Type of FU issued
system.cpu0.iq.FU_type_0::IntDiv                    0      0.00%     68.83% # Type of FU issued
system.cpu0.iq.FU_type_0::FloatAdd              15686      0.03%     68.86% # Type of FU issued
system.cpu0.iq.FU_type_0::FloatCmp                  0      0.00%     68.86% # Type of FU issued
system.cpu0.iq.FU_type_0::FloatCvt                  0      0.00%     68.86% # Type of FU issued
system.cpu0.iq.FU_type_0::FloatMult                 0      0.00%     68.86% # Type of FU issued
system.cpu0.iq.FU_type_0::FloatDiv               1654      0.00%     68.87% # Type of FU issued
system.cpu0.iq.FU_type_0::FloatSqrt                 0      0.00%     68.87% # Type of FU issued
system.cpu0.iq.FU_type_0::SimdAdd                   0      0.00%     68.87% # Type of FU issued
system.cpu0.iq.FU_type_0::SimdAddAcc                0      0.00%     68.87% # Type of FU issued
system.cpu0.iq.FU_type_0::SimdAlu                   0      0.00%     68.87% # Type of FU issued
system.cpu0.iq.FU_type_0::SimdCmp                   0      0.00%     68.87% # Type of FU issued
system.cpu0.iq.FU_type_0::SimdCvt                   0      0.00%     68.87% # Type of FU issued
system.cpu0.iq.FU_type_0::SimdMisc                  0      0.00%     68.87% # Type of FU issued
system.cpu0.iq.FU_type_0::SimdMult                  0      0.00%     68.87% # Type of FU issued
system.cpu0.iq.FU_type_0::SimdMultAcc               0      0.00%     68.87% # Type of FU issued
system.cpu0.iq.FU_type_0::SimdShift                 0      0.00%     68.87% # Type of FU issued
system.cpu0.iq.FU_type_0::SimdShiftAcc              0      0.00%     68.87% # Type of FU issued
system.cpu0.iq.FU_type_0::SimdSqrt                  0      0.00%     68.87% # Type of FU issued
system.cpu0.iq.FU_type_0::SimdFloatAdd              0      0.00%     68.87% # Type of FU issued
system.cpu0.iq.FU_type_0::SimdFloatAlu              0      0.00%     68.87% # Type of FU issued
system.cpu0.iq.FU_type_0::SimdFloatCmp              0      0.00%     68.87% # Type of FU issued
system.cpu0.iq.FU_type_0::SimdFloatCvt              0      0.00%     68.87% # Type of FU issued
system.cpu0.iq.FU_type_0::SimdFloatDiv              0      0.00%     68.87% # Type of FU issued
system.cpu0.iq.FU_type_0::SimdFloatMisc             0      0.00%     68.87% # Type of FU issued
system.cpu0.iq.FU_type_0::SimdFloatMult             0      0.00%     68.87% # Type of FU issued
system.cpu0.iq.FU_type_0::SimdFloatMultAcc            0      0.00%     68.87% # Type of FU issued
system.cpu0.iq.FU_type_0::SimdFloatSqrt             0      0.00%     68.87% # Type of FU issued
system.cpu0.iq.FU_type_0::MemRead             9967542     18.12%     86.99% # Type of FU issued
system.cpu0.iq.FU_type_0::MemWrite            6280275     11.42%     98.40% # Type of FU issued
system.cpu0.iq.FU_type_0::IprAccess            877731      1.60%    100.00% # Type of FU issued
system.cpu0.iq.FU_type_0::InstPrefetch              0      0.00%    100.00% # Type of FU issued
system.cpu0.iq.FU_type_0::total              55005856                       # Type of FU issued
system.cpu0.iq.rate                          0.490024                       # Inst issue rate
system.cpu0.iq.fu_busy_cnt                     702858                       # FU busy when requested
system.cpu0.iq.fu_busy_rate                  0.012778                       # FU busy rate (busy events/executed inst)
system.cpu0.iq.int_inst_queue_reads         188615716                       # Number of integer instruction queue reads
system.cpu0.iq.int_inst_queue_writes         65871549                       # Number of integer instruction queue writes
system.cpu0.iq.int_inst_queue_wakeup_accesses     53572345                       # Number of integer instruction queue wakeup accesses
system.cpu0.iq.fp_inst_queue_reads             621990                       # Number of floating instruction queue reads
system.cpu0.iq.fp_inst_queue_writes            297473                       # Number of floating instruction queue writes
system.cpu0.iq.fp_inst_queue_wakeup_accesses       294666                       # Number of floating instruction queue wakeup accesses
system.cpu0.iq.int_alu_accesses              55378554                       # Number of integer alu accesses
system.cpu0.iq.fp_alu_accesses                 326832                       # Number of floating point alu accesses
system.cpu0.iew.lsq.thread0.forwLoads          547956                       # Number of loads that had data forwarded from stores
system.cpu0.iew.lsq.thread0.invAddrLoads            0                       # Number of loads ignored due to an invalid address
system.cpu0.iew.lsq.thread0.squashedLoads      1439562                       # Number of loads squashed
system.cpu0.iew.lsq.thread0.ignoredResponses        14656                       # Number of memory responses ignored because the instruction is squashed
system.cpu0.iew.lsq.thread0.memOrderViolation        23453                       # Number of memory ordering violations
system.cpu0.iew.lsq.thread0.squashedStores       541104                       # Number of stores squashed
system.cpu0.iew.lsq.thread0.invAddrSwpfs            0                       # Number of software prefetches ignored due to an invalid address
system.cpu0.iew.lsq.thread0.blockedLoads            0                       # Number of blocked loads due to partial load-store forwarding
system.cpu0.iew.lsq.thread0.rescheduledLoads        18437                       # Number of loads that were rescheduled
system.cpu0.iew.lsq.thread0.cacheBlocked       167543                       # Number of times an access to memory failed due to the cache being blocked
system.cpu0.iew.iewIdleCycles                       0                       # Number of cycles IEW is idle
system.cpu0.iew.iewSquashCycles               1369124                       # Number of cycles IEW is squashing
system.cpu0.iew.iewBlockCycles                8683441                       # Number of cycles IEW is blocking
system.cpu0.iew.iewUnblockCycles               605421                       # Number of cycles IEW is unblocking
system.cpu0.iew.iewDispatchedInsts           62052001                       # Number of instructions dispatched to IQ
system.cpu0.iew.iewDispSquashedInsts           831027                       # Number of squashed instructions skipped by dispatch
system.cpu0.iew.iewDispLoadInsts             10044360                       # Number of dispatched load instructions
system.cpu0.iew.iewDispStoreInsts             6546770                       # Number of dispatched store instructions
system.cpu0.iew.iewDispNonSpecInsts           1774362                       # Number of dispatched non-speculative instructions
system.cpu0.iew.iewIQFullEvents                483184                       # Number of times the IQ has become full, causing a stall
system.cpu0.iew.iewLSQFullEvents                10442                       # Number of times the LSQ has become full, causing a stall
system.cpu0.iew.memOrderViolationEvents         23453                       # Number of memory order violations
system.cpu0.iew.predictedTakenIncorrect        350905                       # Number of branches that were predicted taken incorrectly
system.cpu0.iew.predictedNotTakenIncorrect       357470                       # Number of branches that were predicted not taken incorrectly
system.cpu0.iew.branchMispredicts              708375                       # Number of branch mispredicts detected at execute
system.cpu0.iew.iewExecutedInsts             54360123                       # Number of executed instructions
system.cpu0.iew.iewExecLoadInsts              9599991                       # Number of load instructions executed
system.cpu0.iew.iewExecSquashedInsts           645732                       # Number of squashed instructions skipped in execute
system.cpu0.iew.exec_swp                            0                       # number of swp insts executed
system.cpu0.iew.exec_nop                      3511008                       # number of nop insts executed
system.cpu0.iew.exec_refs                    15823517                       # number of memory reference insts executed
system.cpu0.iew.exec_branches                 8665836                       # Number of branches executed
system.cpu0.iew.exec_stores                   6223526                       # Number of stores executed
system.cpu0.iew.exec_rate                    0.484271                       # Inst execution rate
system.cpu0.iew.wb_sent                      53987864                       # cumulative count of insts sent to commit
system.cpu0.iew.wb_count                     53867011                       # cumulative count of insts written-back
system.cpu0.iew.wb_producers                 26614200                       # num instructions producing a value
system.cpu0.iew.wb_consumers                 35806994                       # num instructions consuming a value
system.cpu0.iew.wb_penalized                        0                       # number of instrctions required to write to 'other' IQ
system.cpu0.iew.wb_rate                      0.479878                       # insts written-back per cycle
system.cpu0.iew.wb_fanout                    0.743268                       # average fanout of values written-back
system.cpu0.iew.wb_penalized_rate                   0                       # fraction of instructions written-back that wrote to 'other' IQ
system.cpu0.commit.commitCommittedInsts      53695815                       # The number of committed instructions
system.cpu0.commit.commitSquashedInsts        8260876                       # The number of squashed insts skipped by commit
system.cpu0.commit.commitNonSpecStalls         638556                       # The number of times commit has been forced to stall to communicate backwards
system.cpu0.commit.branchMispredicts           645745                       # The number of times a branch was mispredicted
system.cpu0.commit.committed_per_cycle::samples     77042455                       # Number of insts commited each cycle
system.cpu0.commit.committed_per_cycle::mean     0.696964                       # Number of insts commited each cycle
system.cpu0.commit.committed_per_cycle::stdev     1.608185                       # Number of insts commited each cycle
system.cpu0.commit.committed_per_cycle::underflows            0      0.00%      0.00% # Number of insts commited each cycle
system.cpu0.commit.committed_per_cycle::0     56792844     73.72%     73.72% # Number of insts commited each cycle
system.cpu0.commit.committed_per_cycle::1      8505609     11.04%     84.76% # Number of insts commited each cycle
system.cpu0.commit.committed_per_cycle::2      4528626      5.88%     90.63% # Number of insts commited each cycle
system.cpu0.commit.committed_per_cycle::3      2490278      3.23%     93.87% # Number of insts commited each cycle
system.cpu0.commit.committed_per_cycle::4      1477167      1.92%     95.78% # Number of insts commited each cycle
system.cpu0.commit.committed_per_cycle::5       617055      0.80%     96.59% # Number of insts commited each cycle
system.cpu0.commit.committed_per_cycle::6       444256      0.58%     97.16% # Number of insts commited each cycle
system.cpu0.commit.committed_per_cycle::7       490319      0.64%     97.80% # Number of insts commited each cycle
system.cpu0.commit.committed_per_cycle::8      1696301      2.20%    100.00% # Number of insts commited each cycle
system.cpu0.commit.committed_per_cycle::overflows            0      0.00%    100.00% # Number of insts commited each cycle
system.cpu0.commit.committed_per_cycle::min_value            0                       # Number of insts commited each cycle
system.cpu0.commit.committed_per_cycle::max_value            8                       # Number of insts commited each cycle
system.cpu0.commit.committed_per_cycle::total     77042455                       # Number of insts commited each cycle
system.cpu0.commit.count                     53695815                       # Number of instructions committed
system.cpu0.commit.swp_count                        0                       # Number of s/w prefetches committed
system.cpu0.commit.refs                      14610464                       # Number of memory references committed
system.cpu0.commit.loads                      8604798                       # Number of loads committed
system.cpu0.commit.membars                     217772                       # Number of memory barriers committed
system.cpu0.commit.branches                   8097271                       # Number of branches committed
system.cpu0.commit.fp_insts                    292136                       # Number of committed floating point instructions.
system.cpu0.commit.int_insts                 49674100                       # Number of committed integer instructions.
system.cpu0.commit.function_calls              705369                       # Number of function calls committed.
system.cpu0.commit.bw_lim_events              1696301                       # number cycles where commit BW limit reached
system.cpu0.commit.bw_limited                       0                       # number of insts not committed due to BW limits
system.cpu0.rob.rob_reads                   137112360                       # The number of ROB reads
system.cpu0.rob.rob_writes                  125284104                       # The number of ROB writes
system.cpu0.timesIdled                        1232970                       # Number of times that the entire CPU went into an idle state and unscheduled itself
system.cpu0.idleCycles                       33839834                       # Total number of cycles that the CPU has spent unscheduled due to idling
system.cpu0.committedInsts                   50579161                       # Number of Instructions Simulated
system.cpu0.committedInsts_total             50579161                       # Number of Instructions Simulated
system.cpu0.cpi                              2.219321                       # CPI: Cycles Per Instruction
system.cpu0.cpi_total                        2.219321                       # CPI: Total CPI of All Threads
system.cpu0.ipc                              0.450588                       # IPC: Instructions Per Cycle
system.cpu0.ipc_total                        0.450588                       # IPC: Total IPC of All Threads
system.cpu0.int_regfile_reads                71273377                       # number of integer regfile reads
system.cpu0.int_regfile_writes               38974201                       # number of integer regfile writes
system.cpu0.fp_regfile_reads                   144005                       # number of floating regfile reads
system.cpu0.fp_regfile_writes                  146400                       # number of floating regfile writes
system.cpu0.misc_regfile_reads                1864820                       # number of misc regfile reads
system.cpu0.misc_regfile_writes                888952                       # number of misc regfile writes
system.tsunami.ethernet.descDMAReads                0                       # Number of descriptors the device read w/ DMA
system.tsunami.ethernet.descDMAWrites               0                       # Number of descriptors the device wrote w/ DMA
system.tsunami.ethernet.descDmaReadBytes            0                       # number of descriptor bytes read w/ DMA
system.tsunami.ethernet.descDmaWriteBytes            0                       # number of descriptor bytes write w/ DMA
system.tsunami.ethernet.postedSwi                   0                       # number of software interrupts posted to CPU
system.tsunami.ethernet.coalescedSwi         no_value                       # average number of Swi's coalesced into each post
system.tsunami.ethernet.totalSwi                    0                       # total number of Swi written to ISR
system.tsunami.ethernet.postedRxIdle                0                       # number of rxIdle interrupts posted to CPU
system.tsunami.ethernet.coalescedRxIdle      no_value                       # average number of RxIdle's coalesced into each post
system.tsunami.ethernet.totalRxIdle                 0                       # total number of RxIdle written to ISR
system.tsunami.ethernet.postedRxOk                  0                       # number of RxOk interrupts posted to CPU
system.tsunami.ethernet.coalescedRxOk        no_value                       # average number of RxOk's coalesced into each post
system.tsunami.ethernet.totalRxOk                   0                       # total number of RxOk written to ISR
system.tsunami.ethernet.postedRxDesc                0                       # number of RxDesc interrupts posted to CPU
system.tsunami.ethernet.coalescedRxDesc      no_value                       # average number of RxDesc's coalesced into each post
system.tsunami.ethernet.totalRxDesc                 0                       # total number of RxDesc written to ISR
system.tsunami.ethernet.postedTxOk                  0                       # number of TxOk interrupts posted to CPU
system.tsunami.ethernet.coalescedTxOk        no_value                       # average number of TxOk's coalesced into each post
system.tsunami.ethernet.totalTxOk                   0                       # total number of TxOk written to ISR
system.tsunami.ethernet.postedTxIdle                0                       # number of TxIdle interrupts posted to CPU
system.tsunami.ethernet.coalescedTxIdle      no_value                       # average number of TxIdle's coalesced into each post
system.tsunami.ethernet.totalTxIdle                 0                       # total number of TxIdle written to ISR
system.tsunami.ethernet.postedTxDesc                0                       # number of TxDesc interrupts posted to CPU
system.tsunami.ethernet.coalescedTxDesc      no_value                       # average number of TxDesc's coalesced into each post
system.tsunami.ethernet.totalTxDesc                 0                       # total number of TxDesc written to ISR
system.tsunami.ethernet.postedRxOrn                 0                       # number of RxOrn posted to CPU
system.tsunami.ethernet.coalescedRxOrn       no_value                       # average number of RxOrn's coalesced into each post
system.tsunami.ethernet.totalRxOrn                  0                       # total number of RxOrn written to ISR
system.tsunami.ethernet.coalescedTotal       no_value                       # average number of interrupts coalesced into each post
system.tsunami.ethernet.postedInterrupts            0                       # number of posts to CPU
system.tsunami.ethernet.droppedPackets              0                       # number of packets dropped
system.cpu0.icache.replacements                972255                       # number of replacements
system.cpu0.icache.tagsinuse               509.997473                       # Cycle average of tags in use
system.cpu0.icache.total_refs                 7540990                       # Total number of references to valid blocks.
system.cpu0.icache.sampled_refs                972767                       # Sample count of references to valid blocks.
system.cpu0.icache.avg_refs                  7.752103                       # Average number of references to valid blocks.
system.cpu0.icache.warmup_cycle           23351428000                       # Cycle when the warmup percentage was hit.
system.cpu0.icache.occ_blocks::0           509.997473                       # Average occupied blocks per context
system.cpu0.icache.occ_percent::0            0.996089                       # Average percentage of cache occupancy
system.cpu0.icache.ReadReq_hits::0            7540990                       # number of ReadReq hits
system.cpu0.icache.ReadReq_hits::total        7540990                       # number of ReadReq hits
system.cpu0.icache.demand_hits::0             7540990                       # number of demand (read+write) hits
system.cpu0.icache.demand_hits::1                   0                       # number of demand (read+write) hits
system.cpu0.icache.demand_hits::total         7540990                       # number of demand (read+write) hits
system.cpu0.icache.overall_hits::0            7540990                       # number of overall hits
system.cpu0.icache.overall_hits::1                  0                       # number of overall hits
system.cpu0.icache.overall_hits::total        7540990                       # number of overall hits
system.cpu0.icache.ReadReq_misses::0          1026979                       # number of ReadReq misses
system.cpu0.icache.ReadReq_misses::total      1026979                       # number of ReadReq misses
system.cpu0.icache.demand_misses::0           1026979                       # number of demand (read+write) misses
system.cpu0.icache.demand_misses::1                 0                       # number of demand (read+write) misses
system.cpu0.icache.demand_misses::total       1026979                       # number of demand (read+write) misses
system.cpu0.icache.overall_misses::0          1026979                       # number of overall misses
system.cpu0.icache.overall_misses::1                0                       # number of overall misses
system.cpu0.icache.overall_misses::total      1026979                       # number of overall misses
system.cpu0.icache.ReadReq_miss_latency   15345865496                       # number of ReadReq miss cycles
system.cpu0.icache.demand_miss_latency    15345865496                       # number of demand (read+write) miss cycles
system.cpu0.icache.overall_miss_latency   15345865496                       # number of overall miss cycles
system.cpu0.icache.ReadReq_accesses::0        8567969                       # number of ReadReq accesses(hits+misses)
system.cpu0.icache.ReadReq_accesses::total      8567969                       # number of ReadReq accesses(hits+misses)
system.cpu0.icache.demand_accesses::0         8567969                       # number of demand (read+write) accesses
system.cpu0.icache.demand_accesses::1               0                       # number of demand (read+write) accesses
system.cpu0.icache.demand_accesses::total      8567969                       # number of demand (read+write) accesses
system.cpu0.icache.overall_accesses::0        8567969                       # number of overall (read+write) accesses
system.cpu0.icache.overall_accesses::1              0                       # number of overall (read+write) accesses
system.cpu0.icache.overall_accesses::total      8567969                       # number of overall (read+write) accesses
system.cpu0.icache.ReadReq_miss_rate::0      0.119863                       # miss rate for ReadReq accesses
system.cpu0.icache.demand_miss_rate::0       0.119863                       # miss rate for demand accesses
system.cpu0.icache.demand_miss_rate::1       no_value                       # miss rate for demand accesses
system.cpu0.icache.demand_miss_rate::total     no_value                       # miss rate for demand accesses
system.cpu0.icache.overall_miss_rate::0      0.119863                       # miss rate for overall accesses
system.cpu0.icache.overall_miss_rate::1      no_value                       # miss rate for overall accesses
system.cpu0.icache.overall_miss_rate::total     no_value                       # miss rate for overall accesses
system.cpu0.icache.ReadReq_avg_miss_latency::0 14942.725699                       # average ReadReq miss latency
system.cpu0.icache.ReadReq_avg_miss_latency::1          inf                       # average ReadReq miss latency
system.cpu0.icache.ReadReq_avg_miss_latency::total          inf                       # average ReadReq miss latency
system.cpu0.icache.demand_avg_miss_latency::0 14942.725699                       # average overall miss latency
system.cpu0.icache.demand_avg_miss_latency::1          inf                       # average overall miss latency
system.cpu0.icache.demand_avg_miss_latency::total          inf                       # average overall miss latency
system.cpu0.icache.overall_avg_miss_latency::0 14942.725699                       # average overall miss latency
system.cpu0.icache.overall_avg_miss_latency::1          inf                       # average overall miss latency
system.cpu0.icache.overall_avg_miss_latency::total          inf                       # average overall miss latency
system.cpu0.icache.blocked_cycles::no_mshrs      1169997                       # number of cycles access was blocked
system.cpu0.icache.blocked_cycles::no_targets            0                       # number of cycles access was blocked
system.cpu0.icache.blocked::no_mshrs              101                       # number of cycles access was blocked
system.cpu0.icache.blocked::no_targets              0                       # number of cycles access was blocked
system.cpu0.icache.avg_blocked_cycles::no_mshrs 11584.128713                       # average number of cycles each access was blocked
system.cpu0.icache.avg_blocked_cycles::no_targets     no_value                       # average number of cycles each access was blocked
system.cpu0.icache.fast_writes                      0                       # number of fast writes performed
system.cpu0.icache.cache_copies                     0                       # number of cache copies performed
system.cpu0.icache.writebacks                     201                       # number of writebacks
system.cpu0.icache.ReadReq_mshr_hits            54044                       # number of ReadReq MSHR hits
system.cpu0.icache.demand_mshr_hits             54044                       # number of demand (read+write) MSHR hits
system.cpu0.icache.overall_mshr_hits            54044                       # number of overall MSHR hits
system.cpu0.icache.ReadReq_mshr_misses         972935                       # number of ReadReq MSHR misses
system.cpu0.icache.demand_mshr_misses          972935                       # number of demand (read+write) MSHR misses
[...]
system.cpu1.dcache.StoreCondReq_mshr_miss_rate::total          inf                       # mshr miss rate for StoreCondReq accesses
system.cpu1.dcache.demand_mshr_miss_rate::0     0.034775                       # mshr miss rate for demand accesses
system.cpu1.dcache.demand_mshr_miss_rate::1          inf                       # mshr miss rate for demand accesses
system.cpu1.dcache.demand_mshr_miss_rate::total          inf                       # mshr miss rate for demand accesses
system.cpu1.dcache.overall_mshr_miss_rate::0     0.034775                       # mshr miss rate for overall accesses
system.cpu1.dcache.overall_mshr_miss_rate::1          inf                       # mshr miss rate for overall accesses
system.cpu1.dcache.overall_mshr_miss_rate::total          inf                       # mshr miss rate for overall accesses
system.cpu1.dcache.ReadReq_avg_mshr_miss_latency 12711.265829                       # average ReadReq mshr miss latency
system.cpu1.dcache.WriteReq_avg_mshr_miss_latency 31710.431215                       # average WriteReq mshr miss latency
system.cpu1.dcache.LoadLockedReq_avg_mshr_miss_latency  9895.477816                       # average LoadLockedReq mshr miss latency
system.cpu1.dcache.StoreCondReq_avg_mshr_miss_latency  8950.581395                       # average StoreCondReq mshr miss latency
system.cpu1.dcache.demand_avg_mshr_miss_latency 19396.847844                       # average overall mshr miss latency
system.cpu1.dcache.overall_avg_mshr_miss_latency 19396.847844                       # average overall mshr miss latency
system.cpu1.dcache.ReadReq_avg_mshr_uncacheable_latency          inf                       # average ReadReq mshr uncacheable latency
system.cpu1.dcache.WriteReq_avg_mshr_uncacheable_latency          inf                       # average WriteReq mshr uncacheable latency
system.cpu1.dcache.overall_avg_mshr_uncacheable_latency          inf                       # average overall mshr uncacheable latency
system.cpu1.dcache.mshr_cap_events                  0                       # number of times MSHR cap was activated
system.cpu1.dcache.soft_prefetch_mshr_full            0                       # number of mshr full events for SW prefetching instrutions
system.cpu1.dcache.no_allocate_misses               0                       # Number of misses that were no-allocate
system.cpu0.kern.inst.arm                           0                       # number of arm instructions executed
system.cpu0.kern.inst.quiesce                    6377                       # number of quiesce instructions executed
system.cpu0.kern.inst.hwrei                    199477                       # number of hwrei instructions executed
system.cpu0.kern.ipl_count::0                   71613     40.63%     40.63% # number of times we switched to this ipl
system.cpu0.kern.ipl_count::21                    237      0.13%     40.76% # number of times we switched to this ipl
system.cpu0.kern.ipl_count::22                   1921      1.09%     41.85% # number of times we switched to this ipl
system.cpu0.kern.ipl_count::30                      8      0.00%     41.86% # number of times we switched to this ipl
system.cpu0.kern.ipl_count::31                 102492     58.14%    100.00% # number of times we switched to this ipl
system.cpu0.kern.ipl_count::total              176271                       # number of times we switched to this ipl
system.cpu0.kern.ipl_good::0                    70248     49.24%     49.24% # number of times we switched to this ipl from a different ipl
system.cpu0.kern.ipl_good::21                     237      0.17%     49.41% # number of times we switched to this ipl from a different ipl
system.cpu0.kern.ipl_good::22                    1921      1.35%     50.76% # number of times we switched to this ipl from a different ipl
system.cpu0.kern.ipl_good::30                       8      0.01%     50.76% # number of times we switched to this ipl from a different ipl
system.cpu0.kern.ipl_good::31                   70240     49.24%    100.00% # number of times we switched to this ipl from a different ipl
system.cpu0.kern.ipl_good::total               142654                       # number of times we switched to this ipl from a different ipl
system.cpu0.kern.ipl_ticks::0            1858831999000     97.96%     97.96% # number of cycles we spent at this ipl
system.cpu0.kern.ipl_ticks::21               90898500      0.00%     97.97% # number of cycles we spent at this ipl
system.cpu0.kern.ipl_ticks::22              391654500      0.02%     97.99% # number of cycles we spent at this ipl
system.cpu0.kern.ipl_ticks::30                4204500      0.00%     97.99% # number of cycles we spent at this ipl
system.cpu0.kern.ipl_ticks::31            38151374000      2.01%    100.00% # number of cycles we spent at this ipl
system.cpu0.kern.ipl_ticks::total        1897470130500                       # number of cycles we spent at this ipl
system.cpu0.kern.ipl_used::0                 0.980939                       # fraction of swpipl calls that actually changed the ipl
system.cpu0.kern.ipl_used::21                       1                       # fraction of swpipl calls that actually changed the ipl
system.cpu0.kern.ipl_used::22                       1                       # fraction of swpipl calls that actually changed the ipl
system.cpu0.kern.ipl_used::30                       1                       # fraction of swpipl calls that actually changed the ipl
system.cpu0.kern.ipl_used::31                0.685322                       # fraction of swpipl calls that actually changed the ipl
system.cpu0.kern.syscall::2                         8      3.72%      3.72% # number of syscalls executed
system.cpu0.kern.syscall::3                        18      8.37%     12.09% # number of syscalls executed
system.cpu0.kern.syscall::4                         3      1.40%     13.49% # number of syscalls executed
system.cpu0.kern.syscall::6                        32     14.88%     28.37% # number of syscalls executed
system.cpu0.kern.syscall::12                        1      0.47%     28.84% # number of syscalls executed
system.cpu0.kern.syscall::17                        8      3.72%     32.56% # number of syscalls executed
system.cpu0.kern.syscall::19                       10      4.65%     37.21% # number of syscalls executed
system.cpu0.kern.syscall::20                        6      2.79%     40.00% # number of syscalls executed
system.cpu0.kern.syscall::23                        1      0.47%     40.47% # number of syscalls executed
system.cpu0.kern.syscall::24                        3      1.40%     41.86% # number of syscalls executed
system.cpu0.kern.syscall::33                        6      2.79%     44.65% # number of syscalls executed
system.cpu0.kern.syscall::41                        2      0.93%     45.58% # number of syscalls executed
system.cpu0.kern.syscall::45                       33     15.35%     60.93% # number of syscalls executed
system.cpu0.kern.syscall::47                        3      1.40%     62.33% # number of syscalls executed
system.cpu0.kern.syscall::48                       10      4.65%     66.98% # number of syscalls executed
system.cpu0.kern.syscall::54                       10      4.65%     71.63% # number of syscalls executed
system.cpu0.kern.syscall::58                        1      0.47%     72.09% # number of syscalls executed
system.cpu0.kern.syscall::59                        6      2.79%     74.88% # number of syscalls executed
system.cpu0.kern.syscall::71                       23     10.70%     85.58% # number of syscalls executed
system.cpu0.kern.syscall::73                        3      1.40%     86.98% # number of syscalls executed
system.cpu0.kern.syscall::74                        6      2.79%     89.77% # number of syscalls executed
system.cpu0.kern.syscall::87                        1      0.47%     90.23% # number of syscalls executed
system.cpu0.kern.syscall::90                        3      1.40%     91.63% # number of syscalls executed
system.cpu0.kern.syscall::92                        9      4.19%     95.81% # number of syscalls executed
system.cpu0.kern.syscall::97                        2      0.93%     96.74% # number of syscalls executed
system.cpu0.kern.syscall::98                        2      0.93%     97.67% # number of syscalls executed
system.cpu0.kern.syscall::132                       1      0.47%     98.14% # number of syscalls executed
system.cpu0.kern.syscall::144                       2      0.93%     99.07% # number of syscalls executed
system.cpu0.kern.syscall::147                       2      0.93%    100.00% # number of syscalls executed
system.cpu0.kern.syscall::total                   215                       # number of syscalls executed
system.cpu0.kern.callpal::cserve                    1      0.00%      0.00% # number of callpals executed
system.cpu0.kern.callpal::wripir                  104      0.06%      0.06% # number of callpals executed
system.cpu0.kern.callpal::wrmces                    1      0.00%      0.06% # number of callpals executed
system.cpu0.kern.callpal::wrfen                     1      0.00%      0.06% # number of callpals executed
system.cpu0.kern.callpal::wrvptptr                  1      0.00%      0.06% # number of callpals executed
system.cpu0.kern.callpal::swpctx                 3842      2.08%      2.14% # number of callpals executed
system.cpu0.kern.callpal::tbi                      50      0.03%      2.16% # number of callpals executed
system.cpu0.kern.callpal::wrent                     7      0.00%      2.17% # number of callpals executed
system.cpu0.kern.callpal::swpipl               169337     91.54%     93.71% # number of callpals executed
system.cpu0.kern.callpal::rdps                   6360      3.44%     97.14% # number of callpals executed
system.cpu0.kern.callpal::wrkgp                     1      0.00%     97.14% # number of callpals executed
system.cpu0.kern.callpal::wrusp                     2      0.00%     97.14% # number of callpals executed
system.cpu0.kern.callpal::rdusp                     9      0.00%     97.15% # number of callpals executed
system.cpu0.kern.callpal::whami                     2      0.00%     97.15% # number of callpals executed
system.cpu0.kern.callpal::rti                    4767      2.58%     99.73% # number of callpals executed
system.cpu0.kern.callpal::callsys                 369      0.20%     99.93% # number of callpals executed
system.cpu0.kern.callpal::imb                     135      0.07%    100.00% # number of callpals executed
system.cpu0.kern.callpal::total                184989                       # number of callpals executed
system.cpu0.kern.mode_switch::kernel             7265                       # number of protection mode switches
system.cpu0.kern.mode_switch::user               1246                       # number of protection mode switches
system.cpu0.kern.mode_switch::idle                  0                       # number of protection mode switches
system.cpu0.kern.mode_good::kernel               1245                      
system.cpu0.kern.mode_good::user                 1246                      
system.cpu0.kern.mode_good::idle                    0                      
system.cpu0.kern.mode_switch_good::kernel     0.171370                       # fraction of useful protection mode switches
system.cpu0.kern.mode_switch_good::user             1                       # fraction of useful protection mode switches
system.cpu0.kern.mode_switch_good::idle      no_value                       # fraction of useful protection mode switches
system.cpu0.kern.mode_switch_good::total     no_value                       # fraction of useful protection mode switches
system.cpu0.kern.mode_ticks::kernel      1895606727500     99.90%     99.90% # number of ticks spent at the given mode
system.cpu0.kern.mode_ticks::user          1863395000      0.10%    100.00% # number of ticks spent at the given mode
system.cpu0.kern.mode_ticks::idle                   0      0.00%    100.00% # number of ticks spent at the given mode
system.cpu0.kern.swap_context                    3843                       # number of times the context was actually changed
system.cpu1.kern.inst.arm                           0                       # number of arm instructions executed
system.cpu1.kern.inst.quiesce                    2270                       # number of quiesce instructions executed
system.cpu1.kern.inst.hwrei                     38355                       # number of hwrei instructions executed
system.cpu1.kern.ipl_count::0                   10172     33.29%     33.29% # number of times we switched to this ipl
system.cpu1.kern.ipl_count::22                   1920      6.28%     39.57% # number of times we switched to this ipl
system.cpu1.kern.ipl_count::30                    104      0.34%     39.91% # number of times we switched to this ipl
system.cpu1.kern.ipl_count::31                  18361     60.09%    100.00% # number of times we switched to this ipl
system.cpu1.kern.ipl_count::total               30557                       # number of times we switched to this ipl
system.cpu1.kern.ipl_good::0                    10160     45.68%     45.68% # number of times we switched to this ipl from a different ipl
system.cpu1.kern.ipl_good::22                    1920      8.63%     54.32% # number of times we switched to this ipl from a different ipl
system.cpu1.kern.ipl_good::30                     104      0.47%     54.78% # number of times we switched to this ipl from a different ipl
system.cpu1.kern.ipl_good::31                   10056     45.22%    100.00% # number of times we switched to this ipl from a different ipl
system.cpu1.kern.ipl_good::total                22240                       # number of times we switched to this ipl from a different ipl
system.cpu1.kern.ipl_ticks::0            1871109076500     98.61%     98.61% # number of cycles we spent at this ipl
system.cpu1.kern.ipl_ticks::22              343280000      0.02%     98.63% # number of cycles we spent at this ipl
system.cpu1.kern.ipl_ticks::30               41782500      0.00%     98.63% # number of cycles we spent at this ipl
system.cpu1.kern.ipl_ticks::31            25970941500      1.37%    100.00% # number of cycles we spent at this ipl
system.cpu1.kern.ipl_ticks::total        1897465080500                       # number of cycles we spent at this ipl
system.cpu1.kern.ipl_used::0                 0.998820                       # fraction of swpipl calls that actually changed the ipl
system.cpu1.kern.ipl_used::22                       1                       # fraction of swpipl calls that actually changed the ipl
system.cpu1.kern.ipl_used::30                       1                       # fraction of swpipl calls that actually changed the ipl
system.cpu1.kern.ipl_used::31                0.547683                       # fraction of swpipl calls that actually changed the ipl
system.cpu1.kern.syscall::3                        12     10.81%     10.81% # number of syscalls executed
system.cpu1.kern.syscall::4                         1      0.90%     11.71% # number of syscalls executed
system.cpu1.kern.syscall::6                        10      9.01%     20.72% # number of syscalls executed
system.cpu1.kern.syscall::15                        1      0.90%     21.62% # number of syscalls executed
system.cpu1.kern.syscall::17                        7      6.31%     27.93% # number of syscalls executed
system.cpu1.kern.syscall::23                        3      2.70%     30.63% # number of syscalls executed
system.cpu1.kern.syscall::24                        3      2.70%     33.33% # number of syscalls executed
system.cpu1.kern.syscall::33                        5      4.50%     37.84% # number of syscalls executed
system.cpu1.kern.syscall::45                       21     18.92%     56.76% # number of syscalls executed
system.cpu1.kern.syscall::47                        3      2.70%     59.46% # number of syscalls executed
system.cpu1.kern.syscall::59                        1      0.90%     60.36% # number of syscalls executed
system.cpu1.kern.syscall::71                       31     27.93%     88.29% # number of syscalls executed
system.cpu1.kern.syscall::74                       10      9.01%     97.30% # number of syscalls executed
system.cpu1.kern.syscall::132                       3      2.70%    100.00% # number of syscalls executed
system.cpu1.kern.syscall::total                   111                       # number of syscalls executed
system.cpu1.kern.callpal::cserve                    1      0.00%      0.00% # number of callpals executed
system.cpu1.kern.callpal::wripir                    8      0.03%      0.03% # number of callpals executed
system.cpu1.kern.callpal::wrmces                    1      0.00%      0.03% # number of callpals executed
system.cpu1.kern.callpal::wrfen                     1      0.00%      0.03% # number of callpals executed
system.cpu1.kern.callpal::swpctx                  391      1.24%      1.27% # number of callpals executed
system.cpu1.kern.callpal::tbi                       3      0.01%      1.28% # number of callpals executed
system.cpu1.kern.callpal::wrent                     7      0.02%      1.31% # number of callpals executed
system.cpu1.kern.callpal::swpipl                26005     82.46%     83.77% # number of callpals executed
system.cpu1.kern.callpal::rdps                   2390      7.58%     91.35% # number of callpals executed
system.cpu1.kern.callpal::wrkgp                     1      0.00%     91.35% # number of callpals executed
system.cpu1.kern.callpal::wrusp                     5      0.02%     91.37% # number of callpals executed
system.cpu1.kern.callpal::whami                     3      0.01%     91.38% # number of callpals executed
system.cpu1.kern.callpal::rti                    2527      8.01%     99.39% # number of callpals executed
system.cpu1.kern.callpal::callsys                 146      0.46%     99.85% # number of callpals executed
system.cpu1.kern.callpal::imb                      45      0.14%    100.00% # number of callpals executed
system.cpu1.kern.callpal::rdunique                  1      0.00%    100.00% # number of callpals executed
system.cpu1.kern.callpal::total                 31535                       # number of callpals executed
system.cpu1.kern.mode_switch::kernel              869                       # number of protection mode switches
system.cpu1.kern.mode_switch::user                492                       # number of protection mode switches
system.cpu1.kern.mode_switch::idle               2051                       # number of protection mode switches
system.cpu1.kern.mode_good::kernel                521                      
system.cpu1.kern.mode_good::user                  492                      
system.cpu1.kern.mode_good::idle                   29                      
system.cpu1.kern.mode_switch_good::kernel     0.599540                       # fraction of useful protection mode switches
system.cpu1.kern.mode_switch_good::user             1                       # fraction of useful protection mode switches
system.cpu1.kern.mode_switch_good::idle      0.014139                       # fraction of useful protection mode switches
system.cpu1.kern.mode_switch_good::total     1.613679                       # fraction of useful protection mode switches
system.cpu1.kern.mode_ticks::kernel        2030212000      0.11%      0.11% # number of ticks spent at the given mode
system.cpu1.kern.mode_ticks::user           852485500      0.04%      0.15% # number of ticks spent at the given mode
system.cpu1.kern.mode_ticks::idle        1893908030500     99.85%    100.00% # number of ticks spent at the given mode
system.cpu1.kern.swap_context                     392                       # number of times the context was actually changed

---------- End Simulation Statistics   ----------
