
---------- Begin Simulation Statistics ----------
sim_seconds                                 51.278333                       # Number of seconds simulated
sim_ticks                                51278333141000                       # Number of ticks simulated
final_tick                               51278333141000                       # Number of ticks from beginning of simulation (restored from checkpoints and never reset)
sim_freq                                 1000000000000                       # Frequency of simulated ticks
host_inst_rate                                 303802                       # Simulator instruction rate (inst/s)
host_op_rate                                   357005                       # Simulator op (including micro ops) rate (op/s)
host_tick_rate                            18317890976                       # Simulator tick rate (ticks/s)
host_mem_usage                                 688280                       # Number of bytes of host memory used
host_seconds                                  2799.36                       # Real time elapsed on the host
sim_insts                                   850450745                       # Number of instructions simulated
sim_ops                                     999383448                       # Number of ops (including micro ops) simulated
system.voltage_domain.voltage                       1                       # Voltage in Volts
system.clk_domain.clock                          1000                       # Clock period in ticks
system.physmem.bytes_read::cpu0.dtb.walker        82048                       # Number of bytes read from this memory
system.physmem.bytes_read::cpu0.itb.walker        86080                       # Number of bytes read from this memory
system.physmem.bytes_read::cpu0.inst          2553908                       # Number of bytes read from this memory
system.physmem.bytes_read::cpu0.data         18749896                       # Number of bytes read from this memory
system.physmem.bytes_read::cpu1.dtb.walker        26560                       # Number of bytes read from this memory
system.physmem.bytes_read::cpu1.itb.walker        25408                       # Number of bytes read from this memory
system.physmem.bytes_read::cpu1.inst           451200                       # Number of bytes read from this memory
system.physmem.bytes_read::cpu1.data          4994624                       # Number of bytes read from this memory
system.physmem.bytes_read::cpu2.dtb.walker        34432                       # Number of bytes read from this memory
system.physmem.bytes_read::cpu2.itb.walker        29952                       # Number of bytes read from this memory
system.physmem.bytes_read::cpu2.inst          1461952                       # Number of bytes read from this memory
system.physmem.bytes_read::cpu2.data          6681856                       # Number of bytes read from this memory
system.physmem.bytes_read::cpu3.dtb.walker        70784                       # Number of bytes read from this memory
system.physmem.bytes_read::cpu3.itb.walker        53120                       # Number of bytes read from this memory
system.physmem.bytes_read::cpu3.inst          1684864                       # Number of bytes read from this memory
system.physmem.bytes_read::cpu3.data         11657408                       # Number of bytes read from this memory
system.physmem.bytes_read::realview.ide        398592                       # Number of bytes read from this memory
system.physmem.bytes_read::total             49042684                       # Number of bytes read from this memory
system.physmem.bytes_inst_read::cpu0.inst      2553908                       # Number of instructions bytes read from this memory
system.physmem.bytes_inst_read::cpu1.inst       451200                       # Number of instructions bytes read from this memory
system.physmem.bytes_inst_read::cpu2.inst      1461952                       # Number of instructions bytes read from this memory
system.physmem.bytes_inst_read::cpu3.inst      1684864                       # Number of instructions bytes read from this memory
system.physmem.bytes_inst_read::total         6151924                       # Number of instructions bytes read from this memory
system.physmem.bytes_written::writebacks     68500992                       # Number of bytes written to this memory
system.physmem.bytes_written::cpu0.data         20580                       # Number of bytes written to this memory
system.physmem.bytes_written::total          68521572                       # Number of bytes written to this memory
system.physmem.num_reads::cpu0.dtb.walker         1282                       # Number of read requests responded to by this memory
system.physmem.num_reads::cpu0.itb.walker         1345                       # Number of read requests responded to by this memory
system.physmem.num_reads::cpu0.inst             80312                       # Number of read requests responded to by this memory
system.physmem.num_reads::cpu0.data            292980                       # Number of read requests responded to by this memory
system.physmem.num_reads::cpu1.dtb.walker          415                       # Number of read requests responded to by this memory
system.physmem.num_reads::cpu1.itb.walker          397                       # Number of read requests responded to by this memory
system.physmem.num_reads::cpu1.inst              7050                       # Number of read requests responded to by this memory
system.physmem.num_reads::cpu1.data             78041                       # Number of read requests responded to by this memory
system.physmem.num_reads::cpu2.dtb.walker          538                       # Number of read requests responded to by this memory
system.physmem.num_reads::cpu2.itb.walker          468                       # Number of read requests responded to by this memory
system.physmem.num_reads::cpu2.inst             22843                       # Number of read requests responded to by this memory
system.physmem.num_reads::cpu2.data            104404                       # Number of read requests responded to by this memory
system.physmem.num_reads::cpu3.dtb.walker         1106                       # Number of read requests responded to by this memory
system.physmem.num_reads::cpu3.itb.walker          830                       # Number of read requests responded to by this memory
system.physmem.num_reads::cpu3.inst             26326                       # Number of read requests responded to by this memory
system.physmem.num_reads::cpu3.data            182147                       # Number of read requests responded to by this memory
system.physmem.num_reads::realview.ide           6228                       # Number of read requests responded to by this memory
system.physmem.num_reads::total                806712                       # Number of read requests responded to by this memory
system.physmem.num_writes::writebacks         1070328                       # Number of write requests responded to by this memory
system.physmem.num_writes::cpu0.data             2573                       # Number of write requests responded to by this memory
system.physmem.num_writes::total              1072901                       # Number of write requests responded to by this memory
system.physmem.bw_read::cpu0.dtb.walker          1600                       # Total read bandwidth from this memory (bytes/s)
system.physmem.bw_read::cpu0.itb.walker          1679                       # Total read bandwidth from this memory (bytes/s)
system.physmem.bw_read::cpu0.inst               49805                       # Total read bandwidth from this memory (bytes/s)
system.physmem.bw_read::cpu0.data              365649                       # Total read bandwidth from this memory (bytes/s)
system.physmem.bw_read::cpu1.dtb.walker           518                       # Total read bandwidth from this memory (bytes/s)
system.physmem.bw_read::cpu1.itb.walker           495                       # Total read bandwidth from this memory (bytes/s)
system.physmem.bw_read::cpu1.inst                8799                       # Total read bandwidth from this memory (bytes/s)
system.physmem.bw_read::cpu1.data               97402                       # Total read bandwidth from this memory (bytes/s)
system.physmem.bw_read::cpu2.dtb.walker           671                       # Total read bandwidth from this memory (bytes/s)
system.physmem.bw_read::cpu2.itb.walker           584                       # Total read bandwidth from this memory (bytes/s)
system.physmem.bw_read::cpu2.inst               28510                       # Total read bandwidth from this memory (bytes/s)
system.physmem.bw_read::cpu2.data              130306                       # Total read bandwidth from this memory (bytes/s)
system.physmem.bw_read::cpu3.dtb.walker          1380                       # Total read bandwidth from this memory (bytes/s)
system.physmem.bw_read::cpu3.itb.walker          1036                       # Total read bandwidth from this memory (bytes/s)
system.physmem.bw_read::cpu3.inst               32857                       # Total read bandwidth from this memory (bytes/s)
system.physmem.bw_read::cpu3.data              227336                       # Total read bandwidth from this memory (bytes/s)
system.physmem.bw_read::realview.ide             7773                       # Total read bandwidth from this memory (bytes/s)
system.physmem.bw_read::total                  956402                       # Total read bandwidth from this memory (bytes/s)
system.physmem.bw_inst_read::cpu0.inst          49805                       # Instruction read bandwidth from this memory (bytes/s)
system.physmem.bw_inst_read::cpu1.inst           8799                       # Instruction read bandwidth from this memory (bytes/s)
system.physmem.bw_inst_read::cpu2.inst          28510                       # Instruction read bandwidth from this memory (bytes/s)
system.physmem.bw_inst_read::cpu3.inst          32857                       # Instruction read bandwidth from this memory (bytes/s)
system.physmem.bw_inst_read::total             119971                       # Instruction read bandwidth from this memory (bytes/s)
system.physmem.bw_write::writebacks           1335866                       # Write bandwidth from this memory (bytes/s)
system.physmem.bw_write::cpu0.data                401                       # Write bandwidth from this memory (bytes/s)
system.physmem.bw_write::total                1336268                       # Write bandwidth from this memory (bytes/s)
system.physmem.bw_total::writebacks           1335866                       # Total bandwidth to/from this memory (bytes/s)
system.physmem.bw_total::cpu0.dtb.walker         1600                       # Total bandwidth to/from this memory (bytes/s)
system.physmem.bw_total::cpu0.itb.walker         1679                       # Total bandwidth to/from this memory (bytes/s)
system.physmem.bw_total::cpu0.inst              49805                       # Total bandwidth to/from this memory (bytes/s)
system.physmem.bw_total::cpu0.data             366051                       # Total bandwidth to/from this memory (bytes/s)
system.physmem.bw_total::cpu1.dtb.walker          518                       # Total bandwidth to/from this memory (bytes/s)
system.physmem.bw_total::cpu1.itb.walker          495                       # Total bandwidth to/from this memory (bytes/s)
system.physmem.bw_total::cpu1.inst               8799                       # Total bandwidth to/from this memory (bytes/s)
system.physmem.bw_total::cpu1.data              97402                       # Total bandwidth to/from this memory (bytes/s)
system.physmem.bw_total::cpu2.dtb.walker          671                       # Total bandwidth to/from this memory (bytes/s)
system.physmem.bw_total::cpu2.itb.walker          584                       # Total bandwidth to/from this memory (bytes/s)
system.physmem.bw_total::cpu2.inst              28510                       # Total bandwidth to/from this memory (bytes/s)
system.physmem.bw_total::cpu2.data             130306                       # Total bandwidth to/from this memory (bytes/s)
system.physmem.bw_total::cpu3.dtb.walker         1380                       # Total bandwidth to/from this memory (bytes/s)
system.physmem.bw_total::cpu3.itb.walker         1036                       # Total bandwidth to/from this memory (bytes/s)
system.physmem.bw_total::cpu3.inst              32857                       # Total bandwidth to/from this memory (bytes/s)
system.physmem.bw_total::cpu3.data             227336                       # Total bandwidth to/from this memory (bytes/s)
system.physmem.bw_total::realview.ide            7773                       # Total bandwidth to/from this memory (bytes/s)
system.physmem.bw_total::total                2292669                       # Total bandwidth to/from this memory (bytes/s)
system.physmem.readReqs                        428538                       # Number of read requests accepted
system.physmem.writeReqs                       456847                       # Number of write requests accepted
system.physmem.readBursts                      428538                       # Number of DRAM read bursts, including those serviced by the write queue
system.physmem.writeBursts                     456847                       # Number of DRAM write bursts, including those merged in the write queue
system.physmem.bytesReadDRAM                 27408320                       # Total number of bytes read from DRAM
system.physmem.bytesReadWrQ                     18112                       # Total number of bytes read from write queue
system.physmem.bytesWritten                  29236416                       # Total number of bytes written to DRAM
system.physmem.bytesReadSys                  27426432                       # Total read bytes from the system interface side
system.physmem.bytesWrittenSys               29238208                       # Total written bytes from the system interface side
system.physmem.servicedByWrQ                      283                       # Number of DRAM read bursts serviced by the write queue
system.physmem.mergedWrBursts                       0                       # Number of DRAM write bursts merged with an existing one
system.physmem.neitherReadNorWriteReqs              0                       # Number of requests that are neither read nor write
system.physmem.perBankRdBursts::0               26649                       # Per bank write bursts
system.physmem.perBankRdBursts::1               30049                       # Per bank write bursts
system.physmem.perBankRdBursts::2               26532                       # Per bank write bursts
system.physmem.perBankRdBursts::3               25500                       # Per bank write bursts
system.physmem.perBankRdBursts::4               26079                       # Per bank write bursts
system.physmem.perBankRdBursts::5               32966                       # Per bank write bursts
system.physmem.perBankRdBursts::6               25199                       # Per bank write bursts
system.physmem.perBankRdBursts::7               25237                       # Per bank write bursts
system.physmem.perBankRdBursts::8               24838                       # Per bank write bursts
system.physmem.perBankRdBursts::9               28373                       # Per bank write bursts
system.physmem.perBankRdBursts::10              26870                       # Per bank write bursts
system.physmem.perBankRdBursts::11              27983                       # Per bank write bursts
system.physmem.perBankRdBursts::12              26309                       # Per bank write bursts
system.physmem.perBankRdBursts::13              25787                       # Per bank write bursts
system.physmem.perBankRdBursts::14              24479                       # Per bank write bursts
system.physmem.perBankRdBursts::15              25405                       # Per bank write bursts
system.physmem.perBankWrBursts::0               27847                       # Per bank write bursts
system.physmem.perBankWrBursts::1               29934                       # Per bank write bursts
system.physmem.perBankWrBursts::2               27360                       # Per bank write bursts
system.physmem.perBankWrBursts::3               28363                       # Per bank write bursts
system.physmem.perBankWrBursts::4               28817                       # Per bank write bursts
system.physmem.perBankWrBursts::5               32577                       # Per bank write bursts
system.physmem.perBankWrBursts::6               27869                       # Per bank write bursts
system.physmem.perBankWrBursts::7               28879                       # Per bank write bursts
system.physmem.perBankWrBursts::8               27745                       # Per bank write bursts
system.physmem.perBankWrBursts::9               30902                       # Per bank write bursts
system.physmem.perBankWrBursts::10              28100                       # Per bank write bursts
system.physmem.perBankWrBursts::11              29746                       # Per bank write bursts
system.physmem.perBankWrBursts::12              27536                       # Per bank write bursts
system.physmem.perBankWrBursts::13              27471                       # Per bank write bursts
system.physmem.perBankWrBursts::14              26272                       # Per bank write bursts
system.physmem.perBankWrBursts::15              27401                       # Per bank write bursts
system.physmem.numRdRetry                           0                       # Number of times read queue was full causing retry
system.physmem.numWrRetry                          20                       # Number of times write queue was full causing retry
system.physmem.totGap                    51277332920000                       # Total gap between requests
system.physmem.readPktSize::0                       0                       # Read request sizes (log2)
system.physmem.readPktSize::1                       0                       # Read request sizes (log2)
system.physmem.readPktSize::2                       0                       # Read request sizes (log2)
system.physmem.readPktSize::3                       0                       # Read request sizes (log2)
system.physmem.readPktSize::4                       0                       # Read request sizes (log2)
system.physmem.readPktSize::5                       0                       # Read request sizes (log2)
system.physmem.readPktSize::6                  428538                       # Read request sizes (log2)
system.physmem.writePktSize::0                      0                       # Write request sizes (log2)
system.physmem.writePktSize::1                      0                       # Write request sizes (log2)
system.physmem.writePktSize::2                      0                       # Write request sizes (log2)
system.physmem.writePktSize::3                      0                       # Write request sizes (log2)
system.physmem.writePktSize::4                      0                       # Write request sizes (log2)
system.physmem.writePktSize::5                      0                       # Write request sizes (log2)
system.physmem.writePktSize::6                 456847                       # Write request sizes (log2)
system.physmem.rdQLenPdf::0                    325583                       # What read queue length does an incoming req see
system.physmem.rdQLenPdf::1                     70650                       # What read queue length does an incoming req see
system.physmem.rdQLenPdf::2                     20024                       # What read queue length does an incoming req see
system.physmem.rdQLenPdf::3                      8787                       # What read queue length does an incoming req see
system.physmem.rdQLenPdf::4                       367                       # What read queue length does an incoming req see
system.physmem.rdQLenPdf::5                       313                       # What read queue length does an incoming req see
system.physmem.rdQLenPdf::6                       316                       # What read queue length does an incoming req see
system.physmem.rdQLenPdf::7                       675                       # What read queue length does an incoming req see
system.physmem.rdQLenPdf::8                       413                       # What read queue length does an incoming req see
system.physmem.rdQLenPdf::9                       211                       # What read queue length does an incoming req see
system.physmem.rdQLenPdf::10                      222                       # What read queue length does an incoming req see
system.physmem.rdQLenPdf::11                      119                       # What read queue length does an incoming req see
system.physmem.rdQLenPdf::12                      101                       # What read queue length does an incoming req see
system.physmem.rdQLenPdf::13                       87                       # What read queue length does an incoming req see
system.physmem.rdQLenPdf::14                       80                       # What read queue length does an incoming req see
system.physmem.rdQLenPdf::15                       80                       # What read queue length does an incoming req see
system.physmem.rdQLenPdf::16                       71                       # What read queue length does an incoming req see
system.physmem.rdQLenPdf::17                       67                       # What read queue length does an incoming req see
system.physmem.rdQLenPdf::18                       46                       # What read queue length does an incoming req see
system.physmem.rdQLenPdf::19                       32                       # What read queue length does an incoming req see
system.physmem.rdQLenPdf::20                        6                       # What read queue length does an incoming req see
system.physmem.rdQLenPdf::21                        3                       # What read queue length does an incoming req see
system.physmem.rdQLenPdf::22                        2                       # What read queue length does an incoming req see
system.physmem.rdQLenPdf::23                        0                       # What read queue length does an incoming req see
system.physmem.rdQLenPdf::24                        0                       # What read queue length does an incoming req see
system.physmem.rdQLenPdf::25                        0                       # What read queue length does an incoming req see
system.physmem.rdQLenPdf::26                        0                       # What read queue length does an incoming req see
system.physmem.rdQLenPdf::27                        0                       # What read queue length does an incoming req see
system.physmem.rdQLenPdf::28                        0                       # What read queue length does an incoming req see
system.physmem.rdQLenPdf::29                        0                       # What read queue length does an incoming req see
system.physmem.rdQLenPdf::30                        0                       # What read queue length does an incoming req see
system.physmem.rdQLenPdf::31                        0                       # What read queue length does an incoming req see
system.physmem.wrQLenPdf::0                       593                       # What write queue length does an incoming req see
system.physmem.wrQLenPdf::1                       581                       # What write queue length does an incoming req see
system.physmem.wrQLenPdf::2                       577                       # What write queue length does an incoming req see
system.physmem.wrQLenPdf::3                       577                       # What write queue length does an incoming req see
system.physmem.wrQLenPdf::4                       576                       # What write queue length does an incoming req see
system.physmem.wrQLenPdf::5                       573                       # What write queue length does an incoming req see
system.physmem.wrQLenPdf::6                       565                       # What write queue length does an incoming req see
system.physmem.wrQLenPdf::7                       560                       # What write queue length does an incoming req see
system.physmem.wrQLenPdf::8                       560                       # What write queue length does an incoming req see
system.physmem.wrQLenPdf::9                       558                       # What write queue length does an incoming req see
system.physmem.wrQLenPdf::10                      559                       # What write queue length does an incoming req see
system.physmem.wrQLenPdf::11                      555                       # What write queue length does an incoming req see
system.physmem.wrQLenPdf::12                      556                       # What write queue length does an incoming req see
system.physmem.wrQLenPdf::13                      552                       # What write queue length does an incoming req see
system.physmem.wrQLenPdf::14                      549                       # What write queue length does an incoming req see
system.physmem.wrQLenPdf::15                    10375                       # What write queue length does an incoming req see
system.physmem.wrQLenPdf::16                    12229                       # What write queue length does an incoming req see
system.physmem.wrQLenPdf::17                    21178                       # What write queue length does an incoming req see
system.physmem.wrQLenPdf::18                    22558                       # What write queue length does an incoming req see
system.physmem.wrQLenPdf::19                    25424                       # What write queue length does an incoming req see
system.physmem.wrQLenPdf::20                    25687                       # What write queue length does an incoming req see
system.physmem.wrQLenPdf::21                    25579                       # What write queue length does an incoming req see
system.physmem.wrQLenPdf::22                    25980                       # What write queue length does an incoming req see
system.physmem.wrQLenPdf::23                    26739                       # What write queue length does an incoming req see
system.physmem.wrQLenPdf::24                    26656                       # What write queue length does an incoming req see
system.physmem.wrQLenPdf::25                    27115                       # What write queue length does an incoming req see
system.physmem.wrQLenPdf::26                    28437                       # What write queue length does an incoming req see
system.physmem.wrQLenPdf::27                    27753                       # What write queue length does an incoming req see
system.physmem.wrQLenPdf::28                    28093                       # What write queue length does an incoming req see
system.physmem.wrQLenPdf::29                    29855                       # What write queue length does an incoming req see
system.physmem.wrQLenPdf::30                    26497                       # What write queue length does an incoming req see
system.physmem.wrQLenPdf::31                    26161                       # What write queue length does an incoming req see
system.physmem.wrQLenPdf::32                    25503                       # What write queue length does an incoming req see
system.physmem.wrQLenPdf::33                     1346                       # What write queue length does an incoming req see
system.physmem.wrQLenPdf::34                      521                       # What write queue length does an incoming req see
system.physmem.wrQLenPdf::35                      354                       # What write queue length does an incoming req see
system.physmem.wrQLenPdf::36                      326                       # What write queue length does an incoming req see
system.physmem.wrQLenPdf::37                      284                       # What write queue length does an incoming req see
system.physmem.wrQLenPdf::38                      279                       # What write queue length does an incoming req see
system.physmem.wrQLenPdf::39                      199                       # What write queue length does an incoming req see
system.physmem.wrQLenPdf::40                      197                       # What write queue length does an incoming req see
system.physmem.wrQLenPdf::41                      202                       # What write queue length does an incoming req see
system.physmem.wrQLenPdf::42                      162                       # What write queue length does an incoming req see
system.physmem.wrQLenPdf::43                      222                       # What write queue length does an incoming req see
system.physmem.wrQLenPdf::44                      207                       # What write queue length does an incoming req see
system.physmem.wrQLenPdf::45                      191                       # What write queue length does an incoming req see
system.physmem.wrQLenPdf::46                      157                       # What write queue length does an incoming req see
system.physmem.wrQLenPdf::47                      166                       # What write queue length does an incoming req see
system.physmem.wrQLenPdf::48                      152                       # What write queue length does an incoming req see
system.physmem.wrQLenPdf::49                      177                       # What write queue length does an incoming req see
system.physmem.wrQLenPdf::50                      166                       # What write queue length does an incoming req see
system.physmem.wrQLenPdf::51                      133                       # What write queue length does an incoming req see
system.physmem.wrQLenPdf::52                      124                       # What write queue length does an incoming req see
system.physmem.wrQLenPdf::53                       99                       # What write queue length does an incoming req see
system.physmem.wrQLenPdf::54                      105                       # What write queue length does an incoming req see
system.physmem.wrQLenPdf::55                      115                       # What write queue length does an incoming req see
system.physmem.wrQLenPdf::56                       99                       # What write queue length does an incoming req see
system.physmem.wrQLenPdf::57                       95                       # What write queue length does an incoming req see
system.physmem.wrQLenPdf::58                       79                       # What write queue length does an incoming req see
system.physmem.wrQLenPdf::59                       79                       # What write queue length does an incoming req see
system.physmem.wrQLenPdf::60                       91                       # What write queue length does an incoming req see
system.physmem.wrQLenPdf::61                       98                       # What write queue length does an incoming req see
system.physmem.wrQLenPdf::62                       52                       # What write queue length does an incoming req see
system.physmem.wrQLenPdf::63                       60                       # What write queue length does an incoming req see
system.physmem.bytesPerActivate::samples       267353                       # Bytes accessed per row activation
system.physmem.bytesPerActivate::mean      211.870778                       # Bytes accessed per row activation
system.physmem.bytesPerActivate::gmean     133.094335                       # Bytes accessed per row activation
system.physmem.bytesPerActivate::stdev     252.016088                       # Bytes accessed per row activation
system.physmem.bytesPerActivate::0-127         129551     48.46%     48.46% # Bytes accessed per row activation
system.physmem.bytesPerActivate::128-255        69660     26.06%     74.51% # Bytes accessed per row activation
system.physmem.bytesPerActivate::256-383        23971      8.97%     83.48% # Bytes accessed per row activation
system.physmem.bytesPerActivate::384-511        11874      4.44%     87.92% # Bytes accessed per row activation
system.physmem.bytesPerActivate::512-639         7888      2.95%     90.87% # Bytes accessed per row activation
system.physmem.bytesPerActivate::640-767         4787      1.79%     92.66% # Bytes accessed per row activation
system.physmem.bytesPerActivate::768-895         3806      1.42%     94.08% # Bytes accessed per row activation
system.physmem.bytesPerActivate::896-1023         2811      1.05%     95.14% # Bytes accessed per row activation
system.physmem.bytesPerActivate::1024-1151        13005      4.86%    100.00% # Bytes accessed per row activation
system.physmem.bytesPerActivate::total         267353                       # Bytes accessed per row activation
system.physmem.rdPerTurnAround::samples         24743                       # Reads before turning the bus around for writes
system.physmem.rdPerTurnAround::mean        17.307279                       # Reads before turning the bus around for writes
system.physmem.rdPerTurnAround::stdev       12.628838                       # Reads before turning the bus around for writes
system.physmem.rdPerTurnAround::0-31            23085     93.30%     93.30% # Reads before turning the bus around for writes
system.physmem.rdPerTurnAround::32-63            1534      6.20%     99.50% # Reads before turning the bus around for writes
system.physmem.rdPerTurnAround::64-95              94      0.38%     99.88% # Reads before turning the bus around for writes
system.physmem.rdPerTurnAround::96-127             12      0.05%     99.93% # Reads before turning the bus around for writes
system.physmem.rdPerTurnAround::128-159             6      0.02%     99.95% # Reads before turning the bus around for writes
system.physmem.rdPerTurnAround::160-191             2      0.01%     99.96% # Reads before turning the bus around for writes
system.physmem.rdPerTurnAround::192-223             2      0.01%     99.97% # Reads before turning the bus around for writes
system.physmem.rdPerTurnAround::224-255             1      0.00%     99.97% # Reads before turning the bus around for writes
system.physmem.rdPerTurnAround::256-287             2      0.01%     99.98% # Reads before turning the bus around for writes
system.physmem.rdPerTurnAround::288-319             1      0.00%     99.98% # Reads before turning the bus around for writes
system.physmem.rdPerTurnAround::320-351             1      0.00%     99.99% # Reads before turning the bus around for writes
system.physmem.rdPerTurnAround::384-415             1      0.00%     99.99% # Reads before turning the bus around for writes
system.physmem.rdPerTurnAround::512-543             1      0.00%    100.00% # Reads before turning the bus around for writes
system.physmem.rdPerTurnAround::640-671             1      0.00%    100.00% # Reads before turning the bus around for writes
system.physmem.rdPerTurnAround::total           24743                       # Reads before turning the bus around for writes
system.physmem.wrPerTurnAround::samples         24743                       # Writes before turning the bus around for reads
system.physmem.wrPerTurnAround::mean        18.462555                       # Writes before turning the bus around for reads
system.physmem.wrPerTurnAround::gmean       17.679981                       # Writes before turning the bus around for reads
system.physmem.wrPerTurnAround::stdev        8.466510                       # Writes before turning the bus around for reads
system.physmem.wrPerTurnAround::0-3                17      0.07%      0.07% # Writes before turning the bus around for reads
system.physmem.wrPerTurnAround::4-7                18      0.07%      0.14% # Writes before turning the bus around for reads
system.physmem.wrPerTurnAround::8-11                7      0.03%      0.17% # Writes before turning the bus around for reads
system.physmem.wrPerTurnAround::12-15              50      0.20%      0.37% # Writes before turning the bus around for reads
system.physmem.wrPerTurnAround::16-19           22406     90.55%     90.93% # Writes before turning the bus around for reads
system.physmem.wrPerTurnAround::20-23            1021      4.13%     95.05% # Writes before turning the bus around for reads
system.physmem.wrPerTurnAround::24-27             245      0.99%     96.04% # Writes before turning the bus around for reads
system.physmem.wrPerTurnAround::28-31             205      0.83%     96.87% # Writes before turning the bus around for reads
system.physmem.wrPerTurnAround::32-35              59      0.24%     97.11% # Writes before turning the bus around for reads
system.physmem.wrPerTurnAround::36-39              45      0.18%     97.29% # Writes before turning the bus around for reads
system.physmem.wrPerTurnAround::40-43              91      0.37%     97.66% # Writes before turning the bus around for reads
system.physmem.wrPerTurnAround::44-47              19      0.08%     97.74% # Writes before turning the bus around for reads
system.physmem.wrPerTurnAround::48-51             158      0.64%     98.38% # Writes before turning the bus around for reads
system.physmem.wrPerTurnAround::52-55              47      0.19%     98.57% # Writes before turning the bus around for reads
system.physmem.wrPerTurnAround::56-59              11      0.04%     98.61% # Writes before turning the bus around for reads
system.physmem.wrPerTurnAround::60-63              29      0.12%     98.73% # Writes before turning the bus around for reads
system.physmem.wrPerTurnAround::64-67             119      0.48%     99.21% # Writes before turning the bus around for reads
system.physmem.wrPerTurnAround::68-71              17      0.07%     99.28% # Writes before turning the bus around for reads
system.physmem.wrPerTurnAround::72-75              15      0.06%     99.34% # Writes before turning the bus around for reads
system.physmem.wrPerTurnAround::76-79              48      0.19%     99.53% # Writes before turning the bus around for reads
system.physmem.wrPerTurnAround::80-83              83      0.34%     99.87% # Writes before turning the bus around for reads
system.physmem.wrPerTurnAround::84-87               1      0.00%     99.87% # Writes before turning the bus around for reads
system.physmem.wrPerTurnAround::88-91               1      0.00%     99.87% # Writes before turning the bus around for reads
system.physmem.wrPerTurnAround::92-95               2      0.01%     99.88% # Writes before turning the bus around for reads
system.physmem.wrPerTurnAround::96-99               1      0.00%     99.89% # Writes before turning the bus around for reads
system.physmem.wrPerTurnAround::104-107             1      0.00%     99.89% # Writes before turning the bus around for reads
system.physmem.wrPerTurnAround::112-115             2      0.01%     99.90% # Writes before turning the bus around for reads
system.physmem.wrPerTurnAround::116-119             2      0.01%     99.91% # Writes before turning the bus around for reads
system.physmem.wrPerTurnAround::120-123             2      0.01%     99.92% # Writes before turning the bus around for reads
system.physmem.wrPerTurnAround::124-127             1      0.00%     99.92% # Writes before turning the bus around for reads
system.physmem.wrPerTurnAround::128-131             7      0.03%     99.95% # Writes before turning the bus around for reads
system.physmem.wrPerTurnAround::140-143             1      0.00%     99.95% # Writes before turning the bus around for reads
system.physmem.wrPerTurnAround::144-147             4      0.02%     99.97% # Writes before turning the bus around for reads
system.physmem.wrPerTurnAround::148-151             2      0.01%     99.98% # Writes before turning the bus around for reads
system.physmem.wrPerTurnAround::152-155             1      0.00%     99.98% # Writes before turning the bus around for reads
system.physmem.wrPerTurnAround::156-159             1      0.00%     99.98% # Writes before turning the bus around for reads
system.physmem.wrPerTurnAround::160-163             1      0.00%     99.99% # Writes before turning the bus around for reads
system.physmem.wrPerTurnAround::172-175             1      0.00%     99.99% # Writes before turning the bus around for reads
system.physmem.wrPerTurnAround::176-179             1      0.00%    100.00% # Writes before turning the bus around for reads
system.physmem.wrPerTurnAround::192-195             1      0.00%    100.00% # Writes before turning the bus around for reads
system.physmem.wrPerTurnAround::total           24743                       # Writes before turning the bus around for reads
system.physmem.totQLat                     8299174160                       # Total ticks spent queuing
system.physmem.totMemAccLat               16328955410                       # Total ticks spent from burst creation until serviced by the DRAM
system.physmem.totBusLat                   2141275000                       # Total ticks spent in databus transfers
system.physmem.avgQLat                       19379.05                       # Average queueing delay per DRAM burst
system.physmem.avgBusLat                      5000.00                       # Average bus latency per DRAM burst
system.physmem.avgMemAccLat                  38129.05                       # Average memory access latency per DRAM burst
system.physmem.avgRdBW                           0.53                       # Average DRAM read bandwidth in MiByte/s
system.physmem.avgWrBW                           0.57                       # Average achieved write bandwidth in MiByte/s
system.physmem.avgRdBWSys                        0.53                       # Average system read bandwidth in MiByte/s
system.physmem.avgWrBWSys                        0.57                       # Average system write bandwidth in MiByte/s
system.physmem.peakBW                        12800.00                       # Theoretical peak bandwidth in MiByte/s
system.physmem.busUtil                           0.01                       # Data bus utilization in percentage
system.physmem.busUtilRead                       0.00                       # Data bus utilization in percentage for reads
system.physmem.busUtilWrite                      0.00                       # Data bus utilization in percentage for writes
system.physmem.avgRdQLen                         1.00                       # Average read queue length when enqueuing
system.physmem.avgWrQLen                         5.79                       # Average write queue length when enqueuing
system.physmem.readRowHits                     313353                       # Number of row buffer hits during reads
system.physmem.writeRowHits                    304366                       # Number of row buffer hits during writes
system.physmem.readRowHitRate                   73.17                       # Row buffer hit rate for reads
system.physmem.writeRowHitRate                  66.62                       # Row buffer hit rate for writes
system.physmem.avgGap                     57915294.39                       # Average gap between requests
system.physmem.pageHitRate                      69.79                       # Row buffer hit rate, read and write combined
system.physmem_0.actEnergy                 1033164720                       # Energy for activate commands per rank (pJ)
system.physmem_0.preEnergy                  562076625                       # Energy for precharge commands per rank (pJ)
system.physmem_0.readEnergy                1701999000                       # Energy for read commands per rank (pJ)
system.physmem_0.writeEnergy               1501066080                       # Energy for write commands per rank (pJ)
system.physmem_0.refreshEnergy           3310356385440                       # Energy for refresh commands per rank (pJ)
system.physmem_0.actBackEnergy           1179927426690                       # Energy for active background per rank (pJ)
system.physmem_0.preBackEnergy           30447593029500                       # Energy for precharge background per rank (pJ)
system.physmem_0.totalEnergy             34942675148055                       # Total energy per rank (pJ)
system.physmem_0.averagePower              665.942257                       # Core power per rank (mW)
system.physmem_0.memoryStateTime::IDLE   48866965519857                       # Time in different power states
system.physmem_0.memoryStateTime::REF    1692411240000                       # Time in different power states
system.physmem_0.memoryStateTime::PRE_PDN            0                       # Time in different power states
system.physmem_0.memoryStateTime::ACT    123966214393                       # Time in different power states
system.physmem_0.memoryStateTime::ACT_PDN            0                       # Time in different power states
system.physmem_1.actEnergy                  988023960                       # Energy for activate commands per rank (pJ)
system.physmem_1.preEnergy                  537516375                       # Energy for precharge commands per rank (pJ)
system.physmem_1.readEnergy                1638335400                       # Energy for read commands per rank (pJ)
system.physmem_1.writeEnergy               1459121040                       # Energy for write commands per rank (pJ)
system.physmem_1.refreshEnergy           3310356385440                       # Energy for refresh commands per rank (pJ)
system.physmem_1.actBackEnergy           1177251222825                       # Energy for active background per rank (pJ)
system.physmem_1.preBackEnergy           29686423716000                       # Energy for precharge background per rank (pJ)
system.physmem_1.totalEnergy             34178654321040                       # Total energy per rank (pJ)
system.physmem_1.averagePower              667.571395                       # Core power per rank (mW)
system.physmem_1.memoryStateTime::IDLE   48870902891583                       # Time in different power states
system.physmem_1.memoryStateTime::REF    1692411240000                       # Time in different power states
system.physmem_1.memoryStateTime::PRE_PDN            0                       # Time in different power states
system.physmem_1.memoryStateTime::ACT    120022768167                       # Time in different power states
system.physmem_1.memoryStateTime::ACT_PDN            0                       # Time in different power states
system.realview.nvmem.bytes_read::cpu0.inst           96                       # Number of bytes read from this memory
system.realview.nvmem.bytes_read::cpu0.data           36                       # Number of bytes read from this memory
system.realview.nvmem.bytes_read::cpu2.inst           64                       # Number of bytes read from this memory
system.realview.nvmem.bytes_read::total           196                       # Number of bytes read from this memory
system.realview.nvmem.bytes_inst_read::cpu0.inst           96                       # Number of instructions bytes read from this memory
system.realview.nvmem.bytes_inst_read::cpu2.inst           64                       # Number of instructions bytes read from this memory
system.realview.nvmem.bytes_inst_read::total          160                       # Number of instructions bytes read from this memory
system.realview.nvmem.num_reads::cpu0.inst           24                       # Number of read requests responded to by this memory
system.realview.nvmem.num_reads::cpu0.data            5                       # Number of read requests responded to by this memory
system.realview.nvmem.num_reads::cpu2.inst            1                       # Number of read requests responded to by this memory
system.realview.nvmem.num_reads::total             30                       # Number of read requests responded to by this memory
system.realview.nvmem.bw_read::cpu0.inst            2                       # Total read bandwidth from this memory (bytes/s)
system.realview.nvmem.bw_read::cpu0.data            1                       # Total read bandwidth from this memory (bytes/s)
system.realview.nvmem.bw_read::cpu2.inst            1                       # Total read bandwidth from this memory (bytes/s)
system.realview.nvmem.bw_read::total                4                       # Total read bandwidth from this memory (bytes/s)
system.realview.nvmem.bw_inst_read::cpu0.inst            2                       # Instruction read bandwidth from this memory (bytes/s)
system.realview.nvmem.bw_inst_read::cpu2.inst            1                       # Instruction read bandwidth from this memory (bytes/s)
system.realview.nvmem.bw_inst_read::total            3                       # Instruction read bandwidth from this memory (bytes/s)
system.realview.nvmem.bw_total::cpu0.inst            2                       # Total bandwidth to/from this memory (bytes/s)
system.realview.nvmem.bw_total::cpu0.data            1                       # Total bandwidth to/from this memory (bytes/s)
system.realview.nvmem.bw_total::cpu2.inst            1                       # Total bandwidth to/from this memory (bytes/s)
system.realview.nvmem.bw_total::total               4                       # Total bandwidth to/from this memory (bytes/s)
system.cf0.dma_read_full_pages                    122                       # Number of full page size DMA reads (not PRD).
system.cf0.dma_read_bytes                      499712                       # Number of bytes transfered via DMA reads (not PRD).
system.cf0.dma_read_txs                           122                       # Number of DMA read transactions (not PRD).
system.cf0.dma_write_full_pages                  1666                       # Number of full page size DMA writes.
system.cf0.dma_write_bytes                    6826496                       # Number of bytes transfered via DMA writes.
system.cf0.dma_write_txs                         1669                       # Number of DMA write transactions.
system.cpu_clk_domain.clock                       500                       # Clock period in ticks
system.cpu0.dstage2_mmu.stage2_tlb.walker.walks            0                       # Table walker walks requested
system.cpu0.dstage2_mmu.stage2_tlb.walker.walkRequestOrigin_Requested::Data            0                       # Table walker requests started/completed, data/inst
system.cpu0.dstage2_mmu.stage2_tlb.walker.walkRequestOrigin_Requested::Inst            0                       # Table walker requests started/completed, data/inst
system.cpu0.dstage2_mmu.stage2_tlb.walker.walkRequestOrigin_Requested::total            0                       # Table walker requests started/completed, data/inst
system.cpu0.dstage2_mmu.stage2_tlb.walker.walkRequestOrigin_Completed::Data            0                       # Table walker requests started/completed, data/inst
system.cpu0.dstage2_mmu.stage2_tlb.walker.walkRequestOrigin_Completed::Inst            0                       # Table walker requests started/completed, data/inst
system.cpu0.dstage2_mmu.stage2_tlb.walker.walkRequestOrigin_Completed::total            0                       # Table walker requests started/completed, data/inst
system.cpu0.dstage2_mmu.stage2_tlb.walker.walkRequestOrigin::total            0                       # Table walker requests started/completed, data/inst
system.cpu0.dstage2_mmu.stage2_tlb.inst_hits            0                       # ITB inst hits
system.cpu0.dstage2_mmu.stage2_tlb.inst_misses            0                       # ITB inst misses
system.cpu0.dstage2_mmu.stage2_tlb.read_hits            0                       # DTB read hits
system.cpu0.dstage2_mmu.stage2_tlb.read_misses            0                       # DTB read misses
system.cpu0.dstage2_mmu.stage2_tlb.write_hits            0                       # DTB write hits
system.cpu0.dstage2_mmu.stage2_tlb.write_misses            0                       # DTB write misses
system.cpu0.dstage2_mmu.stage2_tlb.flush_tlb            0                       # Number of times complete TLB was flushed
system.cpu0.dstage2_mmu.stage2_tlb.flush_tlb_mva            0                       # Number of times TLB was flushed by MVA
system.cpu0.dstage2_mmu.stage2_tlb.flush_tlb_mva_asid            0                       # Number of times TLB was flushed by MVA & ASID
system.cpu0.dstage2_mmu.stage2_tlb.flush_tlb_asid            0                       # Number of times TLB was flushed by ASID
system.cpu0.dstage2_mmu.stage2_tlb.flush_entries            0                       # Number of entries that have been flushed from TLB
system.cpu0.dstage2_mmu.stage2_tlb.align_faults            0                       # Number of TLB faults due to alignment restrictions
system.cpu0.dstage2_mmu.stage2_tlb.prefetch_faults            0                       # Number of TLB faults due to prefetch
system.cpu0.dstage2_mmu.stage2_tlb.domain_faults            0                       # Number of TLB faults due to domain restrictions
system.cpu0.dstage2_mmu.stage2_tlb.perms_faults            0                       # Number of TLB faults due to permissions restrictions
system.cpu0.dstage2_mmu.stage2_tlb.read_accesses            0                       # DTB read accesses
system.cpu0.dstage2_mmu.stage2_tlb.write_accesses            0                       # DTB write accesses
system.cpu0.dstage2_mmu.stage2_tlb.inst_accesses            0                       # ITB inst accesses
system.cpu0.dstage2_mmu.stage2_tlb.hits             0                       # DTB hits
system.cpu0.dstage2_mmu.stage2_tlb.misses            0                       # DTB misses
system.cpu0.dstage2_mmu.stage2_tlb.accesses            0                       # DTB accesses
system.cpu0.dtb.walker.walks                    90231                       # Table walker walks requested
system.cpu0.dtb.walker.walksLong                90231                       # Table walker walks initiated with long descriptors
system.cpu0.dtb.walker.walkWaitTime::samples        90231                       # Table walker wait (enqueue to first request) latency
system.cpu0.dtb.walker.walkWaitTime::0          90231    100.00%    100.00% # Table walker wait (enqueue to first request) latency
system.cpu0.dtb.walker.walkWaitTime::total        90231                       # Table walker wait (enqueue to first request) latency
system.cpu0.dtb.walker.walksPending::samples 388941119992                       # Table walker pending requests distribution
system.cpu0.dtb.walker.walksPending::mean     1.527073                       # Table walker pending requests distribution
system.cpu0.dtb.walker.walksPending::0   -205000507008    -52.71%    -52.71% # Table walker pending requests distribution
system.cpu0.dtb.walker.walksPending::1   593941627000    152.71%    100.00% # Table walker pending requests distribution
system.cpu0.dtb.walker.walksPending::total 388941119992                       # Table walker pending requests distribution
system.cpu0.dtb.walker.walkPageSizes::4K        65649     84.67%     84.67% # Table walker page sizes translated
system.cpu0.dtb.walker.walkPageSizes::2M        11889     15.33%    100.00% # Table walker page sizes translated
system.cpu0.dtb.walker.walkPageSizes::total        77538                       # Table walker page sizes translated
system.cpu0.dtb.walker.walkRequestOrigin_Requested::Data        90231                       # Table walker requests started/completed, data/inst
system.cpu0.dtb.walker.walkRequestOrigin_Requested::Inst            0                       # Table walker requests started/completed, data/inst
system.cpu0.dtb.walker.walkRequestOrigin_Requested::total        90231                       # Table walker requests started/completed, data/inst
system.cpu0.dtb.walker.walkRequestOrigin_Completed::Data        77538                       # Table walker requests started/completed, data/inst
system.cpu0.dtb.walker.walkRequestOrigin_Completed::Inst            0                       # Table walker requests started/completed, data/inst
system.cpu0.dtb.walker.walkRequestOrigin_Completed::total        77538                       # Table walker requests started/completed, data/inst
system.cpu0.dtb.walker.walkRequestOrigin::total       167769                       # Table walker requests started/completed, data/inst
system.cpu0.dtb.inst_hits                           0                       # ITB inst hits
system.cpu0.dtb.inst_misses                         0                       # ITB inst misses
system.cpu0.dtb.read_hits                    64940650                       # DTB read hits
system.cpu0.dtb.read_misses                     68234                       # DTB read misses
system.cpu0.dtb.write_hits                   59349095                       # DTB write hits
system.cpu0.dtb.write_misses                    21997                       # DTB write misses
system.cpu0.dtb.flush_tlb                        1197                       # Number of times complete TLB was flushed
system.cpu0.dtb.flush_tlb_mva                       0                       # Number of times TLB was flushed by MVA
system.cpu0.dtb.flush_tlb_mva_asid              16324                       # Number of times TLB was flushed by MVA & ASID
system.cpu0.dtb.flush_tlb_asid                    389                       # Number of times TLB was flushed by ASID
system.cpu0.dtb.flush_entries                   40980                       # Number of entries that have been flushed from TLB
system.cpu0.dtb.align_faults                        0                       # Number of TLB faults due to alignment restrictions
system.cpu0.dtb.prefetch_faults                  2794                       # Number of TLB faults due to prefetch
system.cpu0.dtb.domain_faults                       0                       # Number of TLB faults due to domain restrictions
system.cpu0.dtb.perms_faults                     7599                       # Number of TLB faults due to permissions restrictions
system.cpu0.dtb.read_accesses                65008884                       # DTB read accesses
system.cpu0.dtb.write_accesses               59371092                       # DTB write accesses
system.cpu0.dtb.inst_accesses                       0                       # ITB inst accesses
system.cpu0.dtb.hits                        124289745                       # DTB hits
system.cpu0.dtb.misses                          90231                       # DTB misses
system.cpu0.dtb.accesses                    124379976                       # DTB accesses
system.cpu0.istage2_mmu.stage2_tlb.walker.walks            0                       # Table walker walks requested
system.cpu0.istage2_mmu.stage2_tlb.walker.walkRequestOrigin_Requested::Data            0                       # Table walker requests started/completed, data/inst
system.cpu0.istage2_mmu.stage2_tlb.walker.walkRequestOrigin_Requested::Inst            0                       # Table walker requests started/completed, data/inst
system.cpu0.istage2_mmu.stage2_tlb.walker.walkRequestOrigin_Requested::total            0                       # Table walker requests started/completed, data/inst
system.cpu0.istage2_mmu.stage2_tlb.walker.walkRequestOrigin_Completed::Data            0                       # Table walker requests started/completed, data/inst
system.cpu0.istage2_mmu.stage2_tlb.walker.walkRequestOrigin_Completed::Inst            0                       # Table walker requests started/completed, data/inst
system.cpu0.istage2_mmu.stage2_tlb.walker.walkRequestOrigin_Completed::total            0                       # Table walker requests started/completed, data/inst
system.cpu0.istage2_mmu.stage2_tlb.walker.walkRequestOrigin::total            0                       # Table walker requests started/completed, data/inst
system.cpu0.istage2_mmu.stage2_tlb.inst_hits            0                       # ITB inst hits
system.cpu0.istage2_mmu.stage2_tlb.inst_misses            0                       # ITB inst misses
system.cpu0.istage2_mmu.stage2_tlb.read_hits            0                       # DTB read hits
system.cpu0.istage2_mmu.stage2_tlb.read_misses            0                       # DTB read misses
system.cpu0.istage2_mmu.stage2_tlb.write_hits            0                       # DTB write hits
system.cpu0.istage2_mmu.stage2_tlb.write_misses            0                       # DTB write misses
system.cpu0.istage2_mmu.stage2_tlb.flush_tlb            0                       # Number of times complete TLB was flushed
system.cpu0.istage2_mmu.stage2_tlb.flush_tlb_mva            0                       # Number of times TLB was flushed by MVA
system.cpu0.istage2_mmu.stage2_tlb.flush_tlb_mva_asid            0                       # Number of times TLB was flushed by MVA & ASID
system.cpu0.istage2_mmu.stage2_tlb.flush_tlb_asid            0                       # Number of times TLB was flushed by ASID
system.cpu0.istage2_mmu.stage2_tlb.flush_entries            0                       # Number of entries that have been flushed from TLB
system.cpu0.istage2_mmu.stage2_tlb.align_faults            0                       # Number of TLB faults due to alignment restrictions
system.cpu0.istage2_mmu.stage2_tlb.prefetch_faults            0                       # Number of TLB faults due to prefetch
system.cpu0.istage2_mmu.stage2_tlb.domain_faults            0                       # Number of TLB faults due to domain restrictions
system.cpu0.istage2_mmu.stage2_tlb.perms_faults            0                       # Number of TLB faults due to permissions restrictions
system.cpu0.istage2_mmu.stage2_tlb.read_accesses            0                       # DTB read accesses
system.cpu0.istage2_mmu.stage2_tlb.write_accesses            0                       # DTB write accesses
system.cpu0.istage2_mmu.stage2_tlb.inst_accesses            0                       # ITB inst accesses
system.cpu0.istage2_mmu.stage2_tlb.hits             0                       # DTB hits
system.cpu0.istage2_mmu.stage2_tlb.misses            0                       # DTB misses
system.cpu0.istage2_mmu.stage2_tlb.accesses            0                       # DTB accesses
system.cpu0.itb.walker.walks                    52885                       # Table walker walks requested
system.cpu0.itb.walker.walksLong                52885                       # Table walker walks initiated with long descriptors
system.cpu0.itb.walker.walkWaitTime::samples        52885                       # Table walker wait (enqueue to first request) latency
system.cpu0.itb.walker.walkWaitTime::0          52885    100.00%    100.00% # Table walker wait (enqueue to first request) latency
system.cpu0.itb.walker.walkWaitTime::total        52885                       # Table walker wait (enqueue to first request) latency
system.cpu0.itb.walker.walksPending::samples 388941119992                       # Table walker pending requests distribution
system.cpu0.itb.walker.walksPending::mean     1.527164                       # Table walker pending requests distribution
system.cpu0.itb.walker.walksPending::0   -205035740008    -52.72%    -52.72% # Table walker pending requests distribution
system.cpu0.itb.walker.walksPending::1   593976860000    152.72%    100.00% # Table walker pending requests distribution
system.cpu0.itb.walker.walksPending::total 388941119992                       # Table walker pending requests distribution
system.cpu0.itb.walker.walkPageSizes::4K        45865     94.85%     94.85% # Table walker page sizes translated
system.cpu0.itb.walker.walkPageSizes::2M         2491      5.15%    100.00% # Table walker page sizes translated
system.cpu0.itb.walker.walkPageSizes::total        48356                       # Table walker page sizes translated
system.cpu0.itb.walker.walkRequestOrigin_Requested::Data            0                       # Table walker requests started/completed, data/inst
system.cpu0.itb.walker.walkRequestOrigin_Requested::Inst        52885                       # Table walker requests started/completed, data/inst
system.cpu0.itb.walker.walkRequestOrigin_Requested::total        52885                       # Table walker requests started/completed, data/inst
system.cpu0.itb.walker.walkRequestOrigin_Completed::Data            0                       # Table walker requests started/completed, data/inst
system.cpu0.itb.walker.walkRequestOrigin_Completed::Inst        48356                       # Table walker requests started/completed, data/inst
system.cpu0.itb.walker.walkRequestOrigin_Completed::total        48356                       # Table walker requests started/completed, data/inst
system.cpu0.itb.walker.walkRequestOrigin::total       101241                       # Table walker requests started/completed, data/inst
system.cpu0.itb.inst_hits                   347148099                       # ITB inst hits
system.cpu0.itb.inst_misses                     52885                       # ITB inst misses
system.cpu0.itb.read_hits                           0                       # DTB read hits
system.cpu0.itb.read_misses                         0                       # DTB read misses
system.cpu0.itb.write_hits                          0                       # DTB write hits
system.cpu0.itb.write_misses                        0                       # DTB write misses
system.cpu0.itb.flush_tlb                        1197                       # Number of times complete TLB was flushed
system.cpu0.itb.flush_tlb_mva                       0                       # Number of times TLB was flushed by MVA
system.cpu0.itb.flush_tlb_mva_asid              16324                       # Number of times TLB was flushed by MVA & ASID
system.cpu0.itb.flush_tlb_asid                    389                       # Number of times TLB was flushed by ASID
system.cpu0.itb.flush_entries                   28527                       # Number of entries that have been flushed from TLB
system.cpu0.itb.align_faults                        0                       # Number of TLB faults due to alignment restrictions
system.cpu0.itb.prefetch_faults                     0                       # Number of TLB faults due to prefetch
system.cpu0.itb.domain_faults                       0                       # Number of TLB faults due to domain restrictions
system.cpu0.itb.perms_faults                        0                       # Number of TLB faults due to permissions restrictions
system.cpu0.itb.read_accesses                       0                       # DTB read accesses
system.cpu0.itb.write_accesses                      0                       # DTB write accesses
system.cpu0.itb.inst_accesses               347200984                       # ITB inst accesses
system.cpu0.itb.hits                        347148099                       # DTB hits
system.cpu0.itb.misses                          52885                       # DTB misses
system.cpu0.itb.accesses                    347200984                       # DTB accesses
system.cpu0.numCycles                       418851699                       # number of cpu cycles simulated
system.cpu0.numWorkItemsStarted                     0                       # number of work items this cpu started
system.cpu0.numWorkItemsCompleted                   0                       # number of work items this cpu completed
system.cpu0.kern.inst.arm                           0                       # number of arm instructions executed
system.cpu0.kern.inst.quiesce                   16522                       # number of quiesce instructions executed
system.cpu0.committedInsts                  347002044                       # Number of instructions committed
system.cpu0.committedOps                    408295196                       # Number of ops (including micro ops) committed
system.cpu0.num_int_alu_accesses            375110913                       # Number of integer alu accesses
system.cpu0.num_fp_alu_accesses                357489                       # Number of float alu accesses
system.cpu0.num_func_calls                   20952666                       # number of times a function call or return occured
system.cpu0.num_conditional_control_insts     52632755                       # number of instructions that are conditional controls
system.cpu0.num_int_insts                   375110913                       # number of integer instructions
system.cpu0.num_fp_insts                       357489                       # number of float instructions
system.cpu0.num_int_register_reads          548276980                       # number of times the integer registers were read
system.cpu0.num_int_register_writes         297820090                       # number of times the integer registers were written
system.cpu0.num_fp_register_reads              571479                       # number of times the floating registers were read
system.cpu0.num_fp_register_writes             314936                       # number of times the floating registers were written
system.cpu0.num_cc_register_reads            90391371                       # number of times the CC registers were read
system.cpu0.num_cc_register_writes           90175878                       # number of times the CC registers were written
system.cpu0.num_mem_refs                    124362861                       # number of memory refs
system.cpu0.num_load_insts                   64997668                       # Number of load instructions
system.cpu0.num_store_insts                  59365193                       # Number of store instructions
system.cpu0.num_idle_cycles              408653989.262248                       # Number of idle cycles
system.cpu0.num_busy_cycles              10197709.737752                       # Number of busy cycles
system.cpu0.not_idle_fraction                0.024347                       # Percentage of non-idle cycles
system.cpu0.idle_fraction                    0.975653                       # Percentage of idle cycles
system.cpu0.Branches                         77385391                       # Number of branches fetched
system.cpu0.op_class::No_OpClass                    0      0.00%      0.00% # Class of executed instruction
system.cpu0.op_class::IntAlu                283178336     69.32%     69.32% # Class of executed instruction
system.cpu0.op_class::IntMult                  901174      0.22%     69.54% # Class of executed instruction
system.cpu0.op_class::IntDiv                    41440      0.01%     69.55% # Class of executed instruction
system.cpu0.op_class::FloatAdd                      0      0.00%     69.55% # Class of executed instruction
system.cpu0.op_class::FloatCmp                      0      0.00%     69.55% # Class of executed instruction
system.cpu0.op_class::FloatCvt                      0      0.00%     69.55% # Class of executed instruction
system.cpu0.op_class::FloatMult                     0      0.00%     69.55% # Class of executed instruction
system.cpu0.op_class::FloatDiv                      0      0.00%     69.55% # Class of executed instruction
system.cpu0.op_class::FloatSqrt                     0      0.00%     69.55% # Class of executed instruction
system.cpu0.op_class::SimdAdd                       0      0.00%     69.55% # Class of executed instruction
system.cpu0.op_class::SimdAddAcc                    0      0.00%     69.55% # Class of executed instruction
system.cpu0.op_class::SimdAlu                       0      0.00%     69.55% # Class of executed instruction
system.cpu0.op_class::SimdCmp                       0      0.00%     69.55% # Class of executed instruction
system.cpu0.op_class::SimdCvt                       0      0.00%     69.55% # Class of executed instruction
system.cpu0.op_class::SimdMisc                      0      0.00%     69.55% # Class of executed instruction
system.cpu0.op_class::SimdMult                      0      0.00%     69.55% # Class of executed instruction
system.cpu0.op_class::SimdMultAcc                   0      0.00%     69.55% # Class of executed instruction
system.cpu0.op_class::SimdShift                     0      0.00%     69.55% # Class of executed instruction
system.cpu0.op_class::SimdShiftAcc                  0      0.00%     69.55% # Class of executed instruction
system.cpu0.op_class::SimdSqrt                      0      0.00%     69.55% # Class of executed instruction
system.cpu0.op_class::SimdFloatAdd                  0      0.00%     69.55% # Class of executed instruction
system.cpu0.op_class::SimdFloatAlu                  0      0.00%     69.55% # Class of executed instruction
system.cpu0.op_class::SimdFloatCmp                  0      0.00%     69.55% # Class of executed instruction
system.cpu0.op_class::SimdFloatCvt                  0      0.00%     69.55% # Class of executed instruction
system.cpu0.op_class::SimdFloatDiv                  0      0.00%     69.55% # Class of executed instruction
system.cpu0.op_class::SimdFloatMisc             48921      0.01%     69.56% # Class of executed instruction
system.cpu0.op_class::SimdFloatMult                 0      0.00%     69.56% # Class of executed instruction
system.cpu0.op_class::SimdFloatMultAcc              0      0.00%     69.56% # Class of executed instruction
system.cpu0.op_class::SimdFloatSqrt                 0      0.00%     69.56% # Class of executed instruction
system.cpu0.op_class::MemRead                64997668     15.91%     85.47% # Class of executed instruction
system.cpu0.op_class::MemWrite               59365193     14.53%    100.00% # Class of executed instruction
system.cpu0.op_class::IprAccess                     0      0.00%    100.00% # Class of executed instruction
system.cpu0.op_class::InstPrefetch                  0      0.00%    100.00% # Class of executed instruction
system.cpu0.op_class::total                 408532732                       # Class of executed instruction
system.cpu0.dcache.tags.replacements          9687552                       # number of replacements
system.cpu0.dcache.tags.tagsinuse          511.999716                       # Cycle average of tags in use
system.cpu0.dcache.tags.total_refs          293952506                       # Total number of references to valid blocks.
system.cpu0.dcache.tags.sampled_refs          9688064                       # Sample count of references to valid blocks.
system.cpu0.dcache.tags.avg_refs            30.341718                       # Average number of references to valid blocks.
system.cpu0.dcache.tags.warmup_cycle         33050500                       # Cycle when the warmup percentage was hit.
system.cpu0.dcache.tags.occ_blocks::cpu0.data   497.138446                       # Average occupied blocks per requestor
system.cpu0.dcache.tags.occ_blocks::cpu1.data     5.125391                       # Average occupied blocks per requestor
system.cpu0.dcache.tags.occ_blocks::cpu2.data     4.691064                       # Average occupied blocks per requestor
system.cpu0.dcache.tags.occ_blocks::cpu3.data     5.044815                       # Average occupied blocks per requestor
system.cpu0.dcache.tags.occ_percent::cpu0.data     0.970974                       # Average percentage of cache occupancy
system.cpu0.dcache.tags.occ_percent::cpu1.data     0.010011                       # Average percentage of cache occupancy
system.cpu0.dcache.tags.occ_percent::cpu2.data     0.009162                       # Average percentage of cache occupancy
system.cpu0.dcache.tags.occ_percent::cpu3.data     0.009853                       # Average percentage of cache occupancy
system.cpu0.dcache.tags.occ_percent::total     0.999999                       # Average percentage of cache occupancy
system.cpu0.dcache.tags.occ_task_id_blocks::1024          512                       # Occupied blocks per task id
system.cpu0.dcache.tags.age_task_id_blocks_1024::0          165                       # Occupied blocks per task id
system.cpu0.dcache.tags.age_task_id_blocks_1024::1          320                       # Occupied blocks per task id
system.cpu0.dcache.tags.age_task_id_blocks_1024::2           27                       # Occupied blocks per task id
system.cpu0.dcache.tags.occ_task_id_percent::1024            1                       # Percentage of cache occupancy per task id
system.cpu0.dcache.tags.tag_accesses       1245495121                       # Number of tag accesses
system.cpu0.dcache.tags.data_accesses      1245495121                       # Number of data accesses
system.cpu0.dcache.ReadReq_hits::cpu0.data     60779853                       # number of ReadReq hits
system.cpu0.dcache.ReadReq_hits::cpu1.data     18961352                       # number of ReadReq hits
system.cpu0.dcache.ReadReq_hits::cpu2.data     26111596                       # number of ReadReq hits
system.cpu0.dcache.ReadReq_hits::cpu3.data     45441324                       # number of ReadReq hits
system.cpu0.dcache.ReadReq_hits::total      151294125                       # number of ReadReq hits
system.cpu0.dcache.WriteReq_hits::cpu0.data     56143457                       # number of WriteReq hits
system.cpu0.dcache.WriteReq_hits::cpu1.data     17475743                       # number of WriteReq hits
system.cpu0.dcache.WriteReq_hits::cpu2.data     23187165                       # number of WriteReq hits
system.cpu0.dcache.WriteReq_hits::cpu3.data     37961445                       # number of WriteReq hits
system.cpu0.dcache.WriteReq_hits::total     134767810                       # number of WriteReq hits
system.cpu0.dcache.SoftPFReq_hits::cpu0.data       158913                       # number of SoftPFReq hits
system.cpu0.dcache.SoftPFReq_hits::cpu1.data        47173                       # number of SoftPFReq hits
system.cpu0.dcache.SoftPFReq_hits::cpu2.data        75137                       # number of SoftPFReq hits
system.cpu0.dcache.SoftPFReq_hits::cpu3.data       114608                       # number of SoftPFReq hits
system.cpu0.dcache.SoftPFReq_hits::total       395831                       # number of SoftPFReq hits
system.cpu0.dcache.WriteLineReq_hits::cpu0.data       129155                       # number of WriteLineReq hits
system.cpu0.dcache.WriteLineReq_hits::cpu1.data        44895                       # number of WriteLineReq hits
system.cpu0.dcache.WriteLineReq_hits::cpu2.data        57683                       # number of WriteLineReq hits
system.cpu0.dcache.WriteLineReq_hits::cpu3.data        97740                       # number of WriteLineReq hits
system.cpu0.dcache.WriteLineReq_hits::total       329473                       # number of WriteLineReq hits
system.cpu0.dcache.LoadLockedReq_hits::cpu0.data      1454318                       # number of LoadLockedReq hits
system.cpu0.dcache.LoadLockedReq_hits::cpu1.data       433667                       # number of LoadLockedReq hits
system.cpu0.dcache.LoadLockedReq_hits::cpu2.data       579314                       # number of LoadLockedReq hits
system.cpu0.dcache.LoadLockedReq_hits::cpu3.data       933829                       # number of LoadLockedReq hits
system.cpu0.dcache.LoadLockedReq_hits::total      3401128                       # number of LoadLockedReq hits
system.cpu0.dcache.StoreCondReq_hits::cpu0.data      1544855                       # number of StoreCondReq hits
system.cpu0.dcache.StoreCondReq_hits::cpu1.data       472149                       # number of StoreCondReq hits
system.cpu0.dcache.StoreCondReq_hits::cpu2.data       627026                       # number of StoreCondReq hits
[...]
system.l2c.overall_avg_mshr_uncacheable_latency::cpu1.data 189154.766801                       # average overall mshr uncacheable latency
system.l2c.overall_avg_mshr_uncacheable_latency::cpu2.data 184092.550881                       # average overall mshr uncacheable latency
system.l2c.overall_avg_mshr_uncacheable_latency::cpu3.data 177576.696818                       # average overall mshr uncacheable latency
system.l2c.overall_avg_mshr_uncacheable_latency::total 183514.499491                       # average overall mshr uncacheable latency
system.l2c.no_allocate_misses                       0                       # Number of misses that were no-allocate
system.membus.trans_dist::ReadReq               76738                       # Transaction distribution
system.membus.trans_dist::ReadResp             445217                       # Transaction distribution
system.membus.trans_dist::WriteReq              33648                       # Transaction distribution
system.membus.trans_dist::WriteResp             33648                       # Transaction distribution
system.membus.trans_dist::WritebackDirty      1070328                       # Transaction distribution
system.membus.trans_dist::CleanEvict           202542                       # Transaction distribution
system.membus.trans_dist::UpgradeReq            34555                       # Transaction distribution
system.membus.trans_dist::SCUpgradeReq              2                       # Transaction distribution
system.membus.trans_dist::UpgradeResp           14337                       # Transaction distribution
system.membus.trans_dist::ReadExReq            398389                       # Transaction distribution
system.membus.trans_dist::ReadExResp           398389                       # Transaction distribution
system.membus.trans_dist::ReadSharedReq        368479                       # Transaction distribution
system.membus.trans_dist::InvalidateReq        599634                       # Transaction distribution
system.membus.trans_dist::InvalidateResp       450461                       # Transaction distribution
system.membus.pkt_count_system.l2c.mem_side::system.bridge.slave       122576                       # Packet count per connected master and slave (bytes)
system.membus.pkt_count_system.l2c.mem_side::system.realview.nvmem.port           61                       # Packet count per connected master and slave (bytes)
system.membus.pkt_count_system.l2c.mem_side::system.realview.gic.pio         6760                       # Packet count per connected master and slave (bytes)
system.membus.pkt_count_system.l2c.mem_side::system.physmem.port      3699064                       # Packet count per connected master and slave (bytes)
system.membus.pkt_count_system.l2c.mem_side::total      3828461                       # Packet count per connected master and slave (bytes)
system.membus.pkt_count_system.iocache.mem_side::system.physmem.port       295887                       # Packet count per connected master and slave (bytes)
system.membus.pkt_count_system.iocache.mem_side::total       295887                       # Packet count per connected master and slave (bytes)
system.membus.pkt_count::total                4124348                       # Packet count per connected master and slave (bytes)
system.membus.pkt_size_system.l2c.mem_side::system.bridge.slave       155706                       # Cumulative packet size per connected master and slave (bytes)
system.membus.pkt_size_system.l2c.mem_side::system.realview.nvmem.port          196                       # Cumulative packet size per connected master and slave (bytes)
system.membus.pkt_size_system.l2c.mem_side::system.realview.gic.pio        13520                       # Cumulative packet size per connected master and slave (bytes)
system.membus.pkt_size_system.l2c.mem_side::system.physmem.port    110365024                       # Cumulative packet size per connected master and slave (bytes)
system.membus.pkt_size_system.l2c.mem_side::total    110534446                       # Cumulative packet size per connected master and slave (bytes)
system.membus.pkt_size_system.iocache.mem_side::system.physmem.port      7279360                       # Cumulative packet size per connected master and slave (bytes)
system.membus.pkt_size_system.iocache.mem_side::total      7279360                       # Cumulative packet size per connected master and slave (bytes)
system.membus.pkt_size::total               117813806                       # Cumulative packet size per connected master and slave (bytes)
system.membus.snoops                             2019                       # Total snoops (count)
system.membus.snoop_fanout::samples           2784335                       # Request fanout histogram
system.membus.snoop_fanout::mean                    1                       # Request fanout histogram
system.membus.snoop_fanout::stdev                   0                       # Request fanout histogram
system.membus.snoop_fanout::underflows              0      0.00%      0.00% # Request fanout histogram
system.membus.snoop_fanout::0                       0      0.00%      0.00% # Request fanout histogram
system.membus.snoop_fanout::1                 2784335    100.00%    100.00% # Request fanout histogram
system.membus.snoop_fanout::2                       0      0.00%    100.00% # Request fanout histogram
system.membus.snoop_fanout::overflows               0      0.00%    100.00% # Request fanout histogram
system.membus.snoop_fanout::min_value               1                       # Request fanout histogram
system.membus.snoop_fanout::max_value               1                       # Request fanout histogram
system.membus.snoop_fanout::total             2784335                       # Request fanout histogram
system.membus.reqLayer0.occupancy            62370000                       # Layer occupancy (ticks)
system.membus.reqLayer0.utilization               0.0                       # Layer utilization (%)
system.membus.reqLayer1.occupancy                1000                       # Layer occupancy (ticks)
system.membus.reqLayer1.utilization               0.0                       # Layer utilization (%)
system.membus.reqLayer2.occupancy             1759502                       # Layer occupancy (ticks)
system.membus.reqLayer2.utilization               0.0                       # Layer utilization (%)
system.membus.reqLayer5.occupancy          3098675220                       # Layer occupancy (ticks)
system.membus.reqLayer5.utilization               0.0                       # Layer utilization (%)
system.membus.respLayer2.occupancy         2309466891                       # Layer occupancy (ticks)
system.membus.respLayer2.utilization              0.0                       # Layer utilization (%)
system.membus.respLayer3.occupancy           28779324                       # Layer occupancy (ticks)
system.membus.respLayer3.utilization              0.0                       # Layer utilization (%)
system.realview.dcc.osc_cpu.clock               16667                       # Clock period in ticks
system.realview.dcc.osc_ddr.clock               25000                       # Clock period in ticks
system.realview.dcc.osc_hsbm.clock              25000                       # Clock period in ticks
system.realview.dcc.osc_pxl.clock               42105                       # Clock period in ticks
system.realview.dcc.osc_smb.clock               20000                       # Clock period in ticks
system.realview.dcc.osc_sys.clock               16667                       # Clock period in ticks
system.realview.ethernet.txBytes                  966                       # Bytes Transmitted
system.realview.ethernet.txPackets                  3                       # Number of Packets Transmitted
system.realview.ethernet.txIpChecksums              0                       # Number of tx IP Checksums done by device
system.realview.ethernet.txTcpChecksums             0                       # Number of tx TCP Checksums done by device
system.realview.ethernet.txUdpChecksums             0                       # Number of tx UDP Checksums done by device
system.realview.ethernet.descDMAReads               0                       # Number of descriptors the device read w/ DMA
system.realview.ethernet.descDMAWrites              0                       # Number of descriptors the device wrote w/ DMA
system.realview.ethernet.descDmaReadBytes            0                       # number of descriptor bytes read w/ DMA
system.realview.ethernet.descDmaWriteBytes            0                       # number of descriptor bytes write w/ DMA
system.realview.ethernet.totBandwidth             151                       # Total Bandwidth (bits/s)
system.realview.ethernet.totPackets                 3                       # Total Packets
system.realview.ethernet.totBytes                 966                       # Total Bytes
system.realview.ethernet.totPPS                     0                       # Total Tranmission Rate (packets/s)
system.realview.ethernet.txBandwidth              151                       # Transmit Bandwidth (bits/s)
system.realview.ethernet.txPPS                      0                       # Packet Tranmission Rate (packets/s)
system.realview.ethernet.postedSwi                  0                       # number of software interrupts posted to CPU
system.realview.ethernet.coalescedSwi               0                       # average number of Swi's coalesced into each post
system.realview.ethernet.totalSwi                   0                       # total number of Swi written to ISR
system.realview.ethernet.postedRxIdle               0                       # number of rxIdle interrupts posted to CPU
system.realview.ethernet.coalescedRxIdle            0                       # average number of RxIdle's coalesced into each post
system.realview.ethernet.totalRxIdle                0                       # total number of RxIdle written to ISR
system.realview.ethernet.postedRxOk                 0                       # number of RxOk interrupts posted to CPU
system.realview.ethernet.coalescedRxOk              0                       # average number of RxOk's coalesced into each post
system.realview.ethernet.totalRxOk                  0                       # total number of RxOk written to ISR
system.realview.ethernet.postedRxDesc               0                       # number of RxDesc interrupts posted to CPU
system.realview.ethernet.coalescedRxDesc            0                       # average number of RxDesc's coalesced into each post
system.realview.ethernet.totalRxDesc                0                       # total number of RxDesc written to ISR
system.realview.ethernet.postedTxOk                 0                       # number of TxOk interrupts posted to CPU
system.realview.ethernet.coalescedTxOk              0                       # average number of TxOk's coalesced into each post
system.realview.ethernet.totalTxOk                  0                       # total number of TxOk written to ISR
system.realview.ethernet.postedTxIdle               0                       # number of TxIdle interrupts posted to CPU
system.realview.ethernet.coalescedTxIdle            0                       # average number of TxIdle's coalesced into each post
system.realview.ethernet.totalTxIdle                0                       # total number of TxIdle written to ISR
system.realview.ethernet.postedTxDesc               0                       # number of TxDesc interrupts posted to CPU
system.realview.ethernet.coalescedTxDesc            0                       # average number of TxDesc's coalesced into each post
system.realview.ethernet.totalTxDesc                0                       # total number of TxDesc written to ISR
system.realview.ethernet.postedRxOrn                0                       # number of RxOrn posted to CPU
system.realview.ethernet.coalescedRxOrn             0                       # average number of RxOrn's coalesced into each post
system.realview.ethernet.totalRxOrn                 0                       # total number of RxOrn written to ISR
system.realview.ethernet.coalescedTotal             0                       # average number of interrupts coalesced into each post
system.realview.ethernet.postedInterrupts           18                       # number of posts to CPU
system.realview.ethernet.droppedPackets             0                       # number of packets dropped
system.realview.mcc.osc_clcd.clock              42105                       # Clock period in ticks
system.realview.mcc.osc_mcc.clock               20000                       # Clock period in ticks
system.realview.mcc.osc_peripheral.clock        41667                       # Clock period in ticks
system.realview.mcc.osc_system_bus.clock        41667                       # Clock period in ticks
system.toL2Bus.snoop_filter.tot_requests     51706902                       # Total number of requests made to the snoop filter.
system.toL2Bus.snoop_filter.hit_single_requests     26184437                       # Number of requests hitting in the snoop filter with a single holder of the requested data.
system.toL2Bus.snoop_filter.hit_multi_requests         3148                       # Number of requests hitting in the snoop filter with multiple (>1) holders of the requested data.
system.toL2Bus.snoop_filter.tot_snoops           2316                       # Total number of snoops made to the snoop filter.
system.toL2Bus.snoop_filter.hit_single_snoops         2316                       # Number of snoops hitting in the snoop filter with a single holder of the requested data.
system.toL2Bus.snoop_filter.hit_multi_snoops            0                       # Number of snoops hitting in the snoop filter with multiple (>1) holders of the requested data.
system.toL2Bus.trans_dist::ReadReq            1482882                       # Transaction distribution
system.toL2Bus.trans_dist::ReadResp          23802645                       # Transaction distribution
system.toL2Bus.trans_dist::WriteReq             33648                       # Transaction distribution
system.toL2Bus.trans_dist::WriteResp            33648                       # Transaction distribution
system.toL2Bus.trans_dist::WritebackDirty      7959053                       # Transaction distribution
system.toL2Bus.trans_dist::WritebackClean     15833779                       # Transaction distribution
system.toL2Bus.trans_dist::CleanEvict         2295611                       # Transaction distribution
system.toL2Bus.trans_dist::UpgradeReq           43290                       # Transaction distribution
system.toL2Bus.trans_dist::SCUpgradeReq             5                       # Transaction distribution
system.toL2Bus.trans_dist::UpgradeResp          43295                       # Transaction distribution
system.toL2Bus.trans_dist::ReadExReq          1978465                       # Transaction distribution
system.toL2Bus.trans_dist::ReadExResp         1978465                       # Transaction distribution
system.toL2Bus.trans_dist::ReadCleanReq      15834389                       # Transaction distribution
system.toL2Bus.trans_dist::ReadSharedReq      6490632                       # Transaction distribution
system.toL2Bus.trans_dist::InvalidateReq      1273555                       # Transaction distribution
system.toL2Bus.trans_dist::InvalidateResp      1224699                       # Transaction distribution
system.toL2Bus.pkt_count_system.cpu0.icache.mem_side::system.l2c.cpu_side     47588616                       # Packet count per connected master and slave (bytes)
system.toL2Bus.pkt_count_system.cpu0.dcache.mem_side::system.l2c.cpu_side     29285291                       # Packet count per connected master and slave (bytes)
system.toL2Bus.pkt_count_system.cpu0.itb.walker.dma::system.l2c.cpu_side       809621                       # Packet count per connected master and slave (bytes)
system.toL2Bus.pkt_count_system.cpu0.dtb.walker.dma::system.l2c.cpu_side      1728313                       # Packet count per connected master and slave (bytes)
system.toL2Bus.pkt_count::total              79411841                       # Packet count per connected master and slave (bytes)
system.toL2Bus.pkt_size_system.cpu0.icache.mem_side::system.l2c.cpu_side   2026923028                       # Cumulative packet size per connected master and slave (bytes)
system.toL2Bus.pkt_size_system.cpu0.dcache.mem_side::system.l2c.cpu_side   1022015642                       # Cumulative packet size per connected master and slave (bytes)
system.toL2Bus.pkt_size_system.cpu0.itb.walker.dma::system.l2c.cpu_side      2929800                       # Cumulative packet size per connected master and slave (bytes)
system.toL2Bus.pkt_size_system.cpu0.dtb.walker.dma::system.l2c.cpu_side      6124520                       # Cumulative packet size per connected master and slave (bytes)
system.toL2Bus.pkt_size::total             3057992990                       # Cumulative packet size per connected master and slave (bytes)
system.toL2Bus.snoops                         1664727                       # Total snoops (count)
system.toL2Bus.snoop_fanout::samples         38155395                       # Request fanout histogram
system.toL2Bus.snoop_fanout::mean            0.016407                       # Request fanout histogram
system.toL2Bus.snoop_fanout::stdev           0.127033                       # Request fanout histogram
system.toL2Bus.snoop_fanout::underflows             0      0.00%      0.00% # Request fanout histogram
system.toL2Bus.snoop_fanout::0               37529393     98.36%     98.36% # Request fanout histogram
system.toL2Bus.snoop_fanout::1                 626002      1.64%    100.00% # Request fanout histogram
system.toL2Bus.snoop_fanout::2                      0      0.00%    100.00% # Request fanout histogram
system.toL2Bus.snoop_fanout::overflows              0      0.00%    100.00% # Request fanout histogram
system.toL2Bus.snoop_fanout::min_value              0                       # Request fanout histogram
system.toL2Bus.snoop_fanout::max_value              1                       # Request fanout histogram
system.toL2Bus.snoop_fanout::total           38155395                       # Request fanout histogram
system.toL2Bus.reqLayer0.occupancy        30930828488                       # Layer occupancy (ticks)
system.toL2Bus.reqLayer0.utilization              0.1                       # Layer utilization (%)
system.toL2Bus.snoopLayer0.occupancy           835176                       # Layer occupancy (ticks)
system.toL2Bus.snoopLayer0.utilization            0.0                       # Layer utilization (%)
system.toL2Bus.respLayer0.occupancy       15386050434                       # Layer occupancy (ticks)
system.toL2Bus.respLayer0.utilization             0.0                       # Layer utilization (%)
system.toL2Bus.respLayer1.occupancy        7871932216                       # Layer occupancy (ticks)
system.toL2Bus.respLayer1.utilization             0.0                       # Layer utilization (%)
system.toL2Bus.respLayer2.occupancy         287489224                       # Layer occupancy (ticks)
system.toL2Bus.respLayer2.utilization             0.0                       # Layer utilization (%)
system.toL2Bus.respLayer3.occupancy         705270826                       # Layer occupancy (ticks)
system.toL2Bus.respLayer3.utilization             0.0                       # Layer utilization (%)
system.cpu3.kern.inst.arm                           0                       # number of arm instructions executed
system.cpu3.kern.inst.quiesce                       0                       # number of quiesce instructions executed

---------- End Simulation Statistics   ----------
