
---------- Begin Simulation Statistics ----------
sim_seconds                                 51.234984                       # Number of seconds simulated
sim_ticks                                51234983764500                       # Number of ticks simulated
final_tick                               51234983764500                       # Number of ticks from beginning of simulation (restored from checkpoints and never reset)
sim_freq                                 1000000000000                       # Frequency of simulated ticks
host_inst_rate                                 293597                       # Simulator instruction rate (inst/s)
host_op_rate                                   345003                       # Simulator op (including micro ops) rate (op/s)
host_tick_rate                            16999127000                       # Simulator tick rate (ticks/s)
host_mem_usage                                 723216                       # Number of bytes of host memory used
host_seconds                                  3013.98                       # Real time elapsed on the host
sim_insts                                   884896163                       # Number of instructions simulated
sim_ops                                    1039832130                       # Number of ops (including micro ops) simulated
system.voltage_domain.voltage                       1                       # Voltage in Volts
system.clk_domain.clock                          1000                       # Clock period in ticks
system.physmem.bytes_read::cpu0.dtb.walker       129856                       # Number of bytes read from this memory
system.physmem.bytes_read::cpu0.itb.walker       125184                       # Number of bytes read from this memory
system.physmem.bytes_read::cpu0.inst          2903796                       # Number of bytes read from this memory
system.physmem.bytes_read::cpu0.data         24969352                       # Number of bytes read from this memory
system.physmem.bytes_read::cpu1.dtb.walker        34560                       # Number of bytes read from this memory
system.physmem.bytes_read::cpu1.itb.walker        29888                       # Number of bytes read from this memory
system.physmem.bytes_read::cpu1.inst           811648                       # Number of bytes read from this memory
system.physmem.bytes_read::cpu1.data          7348736                       # Number of bytes read from this memory
system.physmem.bytes_read::cpu2.dtb.walker        94656                       # Number of bytes read from this memory
system.physmem.bytes_read::cpu2.itb.walker        89280                       # Number of bytes read from this memory
system.physmem.bytes_read::cpu2.inst          2169408                       # Number of bytes read from this memory
system.physmem.bytes_read::cpu2.data         17774080                       # Number of bytes read from this memory
system.physmem.bytes_read::realview.ide        413120                       # Number of bytes read from this memory
system.physmem.bytes_read::total             56893564                       # Number of bytes read from this memory
system.physmem.bytes_inst_read::cpu0.inst      2903796                       # Number of instructions bytes read from this memory
system.physmem.bytes_inst_read::cpu1.inst       811648                       # Number of instructions bytes read from this memory
system.physmem.bytes_inst_read::cpu2.inst      2169408                       # Number of instructions bytes read from this memory
system.physmem.bytes_inst_read::total         5884852                       # Number of instructions bytes read from this memory
system.physmem.bytes_written::writebacks     77105472                       # Number of bytes written to this memory
system.physmem.bytes_written::cpu0.data         20580                       # Number of bytes written to this memory
system.physmem.bytes_written::total          77126052                       # Number of bytes written to this memory
system.physmem.num_reads::cpu0.dtb.walker         2029                       # Number of read requests responded to by this memory
system.physmem.num_reads::cpu0.itb.walker         1956                       # Number of read requests responded to by this memory
system.physmem.num_reads::cpu0.inst             85779                       # Number of read requests responded to by this memory
system.physmem.num_reads::cpu0.data            390159                       # Number of read requests responded to by this memory
system.physmem.num_reads::cpu1.dtb.walker          540                       # Number of read requests responded to by this memory
system.physmem.num_reads::cpu1.itb.walker          467                       # Number of read requests responded to by this memory
system.physmem.num_reads::cpu1.inst             12682                       # Number of read requests responded to by this memory
system.physmem.num_reads::cpu1.data            114824                       # Number of read requests responded to by this memory
system.physmem.num_reads::cpu2.dtb.walker         1479                       # Number of read requests responded to by this memory
system.physmem.num_reads::cpu2.itb.walker         1395                       # Number of read requests responded to by this memory
system.physmem.num_reads::cpu2.inst             33897                       # Number of read requests responded to by this memory
system.physmem.num_reads::cpu2.data            277720                       # Number of read requests responded to by this memory
system.physmem.num_reads::realview.ide           6455                       # Number of read requests responded to by this memory
system.physmem.num_reads::total                929382                       # Number of read requests responded to by this memory
system.physmem.num_writes::writebacks         1204773                       # Number of write requests responded to by this memory
system.physmem.num_writes::cpu0.data             2573                       # Number of write requests responded to by this memory
system.physmem.num_writes::total              1207346                       # Number of write requests responded to by this memory
system.physmem.bw_read::cpu0.dtb.walker          2535                       # Total read bandwidth from this memory (bytes/s)
system.physmem.bw_read::cpu0.itb.walker          2443                       # Total read bandwidth from this memory (bytes/s)
system.physmem.bw_read::cpu0.inst               56676                       # Total read bandwidth from this memory (bytes/s)
system.physmem.bw_read::cpu0.data              487350                       # Total read bandwidth from this memory (bytes/s)
system.physmem.bw_read::cpu1.dtb.walker           675                       # Total read bandwidth from this memory (bytes/s)
system.physmem.bw_read::cpu1.itb.walker           583                       # Total read bandwidth from this memory (bytes/s)
system.physmem.bw_read::cpu1.inst               15842                       # Total read bandwidth from this memory (bytes/s)
system.physmem.bw_read::cpu1.data              143432                       # Total read bandwidth from this memory (bytes/s)
system.physmem.bw_read::cpu2.dtb.walker          1847                       # Total read bandwidth from this memory (bytes/s)
system.physmem.bw_read::cpu2.itb.walker          1743                       # Total read bandwidth from this memory (bytes/s)
system.physmem.bw_read::cpu2.inst               42342                       # Total read bandwidth from this memory (bytes/s)
system.physmem.bw_read::cpu2.data              346913                       # Total read bandwidth from this memory (bytes/s)
system.physmem.bw_read::realview.ide             8063                       # Total read bandwidth from this memory (bytes/s)
system.physmem.bw_read::total                 1110444                       # Total read bandwidth from this memory (bytes/s)
system.physmem.bw_inst_read::cpu0.inst          56676                       # Instruction read bandwidth from this memory (bytes/s)
system.physmem.bw_inst_read::cpu1.inst          15842                       # Instruction read bandwidth from this memory (bytes/s)
system.physmem.bw_inst_read::cpu2.inst          42342                       # Instruction read bandwidth from this memory (bytes/s)
system.physmem.bw_inst_read::total             114860                       # Instruction read bandwidth from this memory (bytes/s)
system.physmem.bw_write::writebacks           1504938                       # Write bandwidth from this memory (bytes/s)
system.physmem.bw_write::cpu0.data                402                       # Write bandwidth from this memory (bytes/s)
system.physmem.bw_write::total                1505340                       # Write bandwidth from this memory (bytes/s)
system.physmem.bw_total::writebacks           1504938                       # Total bandwidth to/from this memory (bytes/s)
system.physmem.bw_total::cpu0.dtb.walker         2535                       # Total bandwidth to/from this memory (bytes/s)
system.physmem.bw_total::cpu0.itb.walker         2443                       # Total bandwidth to/from this memory (bytes/s)
system.physmem.bw_total::cpu0.inst              56676                       # Total bandwidth to/from this memory (bytes/s)
system.physmem.bw_total::cpu0.data             487751                       # Total bandwidth to/from this memory (bytes/s)
system.physmem.bw_total::cpu1.dtb.walker          675                       # Total bandwidth to/from this memory (bytes/s)
system.physmem.bw_total::cpu1.itb.walker          583                       # Total bandwidth to/from this memory (bytes/s)
system.physmem.bw_total::cpu1.inst              15842                       # Total bandwidth to/from this memory (bytes/s)
system.physmem.bw_total::cpu1.data             143432                       # Total bandwidth to/from this memory (bytes/s)
system.physmem.bw_total::cpu2.dtb.walker         1847                       # Total bandwidth to/from this memory (bytes/s)
system.physmem.bw_total::cpu2.itb.walker         1743                       # Total bandwidth to/from this memory (bytes/s)
system.physmem.bw_total::cpu2.inst              42342                       # Total bandwidth to/from this memory (bytes/s)
system.physmem.bw_total::cpu2.data             346913                       # Total bandwidth to/from this memory (bytes/s)
system.physmem.bw_total::realview.ide            8063                       # Total bandwidth to/from this memory (bytes/s)
system.physmem.bw_total::total                2615783                       # Total bandwidth to/from this memory (bytes/s)
system.physmem.readReqs                        443127                       # Number of read requests accepted
system.physmem.writeReqs                       607625                       # Number of write requests accepted
system.physmem.readBursts                      443127                       # Number of DRAM read bursts, including those serviced by the write queue
system.physmem.writeBursts                     607625                       # Number of DRAM write bursts, including those merged in the write queue
system.physmem.bytesReadDRAM                 28344960                       # Total number of bytes read from DRAM
system.physmem.bytesReadWrQ                     15168                       # Total number of bytes read from write queue
system.physmem.bytesWritten                  38801344                       # Total number of bytes written to DRAM
system.physmem.bytesReadSys                  28360128                       # Total read bytes from the system interface side
system.physmem.bytesWrittenSys               38888000                       # Total written bytes from the system interface side
system.physmem.servicedByWrQ                      237                       # Number of DRAM read bursts serviced by the write queue
system.physmem.mergedWrBursts                    1354                       # Number of DRAM write bursts merged with an existing one
system.physmem.neitherReadNorWriteReqs          18550                       # Number of requests that are neither read nor write
system.physmem.perBankRdBursts::0               25211                       # Per bank write bursts
system.physmem.perBankRdBursts::1               29295                       # Per bank write bursts
system.physmem.perBankRdBursts::2               27890                       # Per bank write bursts
system.physmem.perBankRdBursts::3               27887                       # Per bank write bursts
system.physmem.perBankRdBursts::4               27824                       # Per bank write bursts
system.physmem.perBankRdBursts::5               30839                       # Per bank write bursts
system.physmem.perBankRdBursts::6               26245                       # Per bank write bursts
system.physmem.perBankRdBursts::7               26732                       # Per bank write bursts
system.physmem.perBankRdBursts::8               26610                       # Per bank write bursts
system.physmem.perBankRdBursts::9               29578                       # Per bank write bursts
system.physmem.perBankRdBursts::10              29152                       # Per bank write bursts
system.physmem.perBankRdBursts::11              31219                       # Per bank write bursts
system.physmem.perBankRdBursts::12              26466                       # Per bank write bursts
system.physmem.perBankRdBursts::13              26838                       # Per bank write bursts
system.physmem.perBankRdBursts::14              25148                       # Per bank write bursts
system.physmem.perBankRdBursts::15              25956                       # Per bank write bursts
system.physmem.perBankWrBursts::0               36103                       # Per bank write bursts
system.physmem.perBankWrBursts::1               37925                       # Per bank write bursts
system.physmem.perBankWrBursts::2               36544                       # Per bank write bursts
system.physmem.perBankWrBursts::3               38823                       # Per bank write bursts
system.physmem.perBankWrBursts::4               41056                       # Per bank write bursts
system.physmem.perBankWrBursts::5               42229                       # Per bank write bursts
system.physmem.perBankWrBursts::6               37594                       # Per bank write bursts
system.physmem.perBankWrBursts::7               36950                       # Per bank write bursts
system.physmem.perBankWrBursts::8               37999                       # Per bank write bursts
system.physmem.perBankWrBursts::9               38649                       # Per bank write bursts
system.physmem.perBankWrBursts::10              38477                       # Per bank write bursts
system.physmem.perBankWrBursts::11              38558                       # Per bank write bursts
system.physmem.perBankWrBursts::12              34649                       # Per bank write bursts
system.physmem.perBankWrBursts::13              36757                       # Per bank write bursts
system.physmem.perBankWrBursts::14              36686                       # Per bank write bursts
system.physmem.perBankWrBursts::15              37272                       # Per bank write bursts
system.physmem.numRdRetry                           0                       # Number of times read queue was full causing retry
system.physmem.numWrRetry                          11                       # Number of times write queue was full causing retry
system.physmem.totGap                    51233787261500                       # Total gap between requests
system.physmem.readPktSize::0                       0                       # Read request sizes (log2)
system.physmem.readPktSize::1                       0                       # Read request sizes (log2)
system.physmem.readPktSize::2                       0                       # Read request sizes (log2)
system.physmem.readPktSize::3                       0                       # Read request sizes (log2)
system.physmem.readPktSize::4                       0                       # Read request sizes (log2)
system.physmem.readPktSize::5                       0                       # Read request sizes (log2)
system.physmem.readPktSize::6                  443127                       # Read request sizes (log2)
system.physmem.writePktSize::0                      0                       # Write request sizes (log2)
system.physmem.writePktSize::1                      0                       # Write request sizes (log2)
system.physmem.writePktSize::2                      0                       # Write request sizes (log2)
system.physmem.writePktSize::3                      0                       # Write request sizes (log2)
system.physmem.writePktSize::4                      0                       # Write request sizes (log2)
system.physmem.writePktSize::5                      0                       # Write request sizes (log2)
system.physmem.writePktSize::6                 607625                       # Write request sizes (log2)
system.physmem.rdQLenPdf::0                    312054                       # What read queue length does an incoming req see
system.physmem.rdQLenPdf::1                     88763                       # What read queue length does an incoming req see
system.physmem.rdQLenPdf::2                     29344                       # What read queue length does an incoming req see
system.physmem.rdQLenPdf::3                     12555                       # What read queue length does an incoming req see
system.physmem.rdQLenPdf::4                       104                       # What read queue length does an incoming req see
system.physmem.rdQLenPdf::5                        12                       # What read queue length does an incoming req see
system.physmem.rdQLenPdf::6                         9                       # What read queue length does an incoming req see
system.physmem.rdQLenPdf::7                         8                       # What read queue length does an incoming req see
system.physmem.rdQLenPdf::8                         6                       # What read queue length does an incoming req see
system.physmem.rdQLenPdf::9                         3                       # What read queue length does an incoming req see
system.physmem.rdQLenPdf::10                        4                       # What read queue length does an incoming req see
system.physmem.rdQLenPdf::11                        3                       # What read queue length does an incoming req see
system.physmem.rdQLenPdf::12                        3                       # What read queue length does an incoming req see
system.physmem.rdQLenPdf::13                        3                       # What read queue length does an incoming req see
system.physmem.rdQLenPdf::14                        3                       # What read queue length does an incoming req see
system.physmem.rdQLenPdf::15                        3                       # What read queue length does an incoming req see
system.physmem.rdQLenPdf::16                        3                       # What read queue length does an incoming req see
system.physmem.rdQLenPdf::17                        3                       # What read queue length does an incoming req see
system.physmem.rdQLenPdf::18                        3                       # What read queue length does an incoming req see
system.physmem.rdQLenPdf::19                        3                       # What read queue length does an incoming req see
system.physmem.rdQLenPdf::20                        1                       # What read queue length does an incoming req see
system.physmem.rdQLenPdf::21                        0                       # What read queue length does an incoming req see
system.physmem.rdQLenPdf::22                        0                       # What read queue length does an incoming req see
system.physmem.rdQLenPdf::23                        0                       # What read queue length does an incoming req see
system.physmem.rdQLenPdf::24                        0                       # What read queue length does an incoming req see
system.physmem.rdQLenPdf::25                        0                       # What read queue length does an incoming req see
system.physmem.rdQLenPdf::26                        0                       # What read queue length does an incoming req see
system.physmem.rdQLenPdf::27                        0                       # What read queue length does an incoming req see
system.physmem.rdQLenPdf::28                        0                       # What read queue length does an incoming req see
system.physmem.rdQLenPdf::29                        0                       # What read queue length does an incoming req see
system.physmem.rdQLenPdf::30                        0                       # What read queue length does an incoming req see
system.physmem.rdQLenPdf::31                        0                       # What read queue length does an incoming req see
system.physmem.wrQLenPdf::0                       480                       # What write queue length does an incoming req see
system.physmem.wrQLenPdf::1                       479                       # What write queue length does an incoming req see
system.physmem.wrQLenPdf::2                       477                       # What write queue length does an incoming req see
system.physmem.wrQLenPdf::3                       472                       # What write queue length does an incoming req see
system.physmem.wrQLenPdf::4                       472                       # What write queue length does an incoming req see
system.physmem.wrQLenPdf::5                       469                       # What write queue length does an incoming req see
system.physmem.wrQLenPdf::6                       469                       # What write queue length does an incoming req see
system.physmem.wrQLenPdf::7                       470                       # What write queue length does an incoming req see
system.physmem.wrQLenPdf::8                       467                       # What write queue length does an incoming req see
system.physmem.wrQLenPdf::9                       465                       # What write queue length does an incoming req see
system.physmem.wrQLenPdf::10                      462                       # What write queue length does an incoming req see
system.physmem.wrQLenPdf::11                      464                       # What write queue length does an incoming req see
system.physmem.wrQLenPdf::12                      464                       # What write queue length does an incoming req see
system.physmem.wrQLenPdf::13                      462                       # What write queue length does an incoming req see
system.physmem.wrQLenPdf::14                      457                       # What write queue length does an incoming req see
system.physmem.wrQLenPdf::15                    12737                       # What write queue length does an incoming req see
system.physmem.wrQLenPdf::16                    17039                       # What write queue length does an incoming req see
system.physmem.wrQLenPdf::17                    24672                       # What write queue length does an incoming req see
system.physmem.wrQLenPdf::18                    28080                       # What write queue length does an incoming req see
system.physmem.wrQLenPdf::19                    33366                       # What write queue length does an incoming req see
system.physmem.wrQLenPdf::20                    36383                       # What write queue length does an incoming req see
system.physmem.wrQLenPdf::21                    37105                       # What write queue length does an incoming req see
system.physmem.wrQLenPdf::22                    38583                       # What write queue length does an incoming req see
system.physmem.wrQLenPdf::23                    39124                       # What write queue length does an incoming req see
system.physmem.wrQLenPdf::24                    40093                       # What write queue length does an incoming req see
system.physmem.wrQLenPdf::25                    39396                       # What write queue length does an incoming req see
system.physmem.wrQLenPdf::26                    38019                       # What write queue length does an incoming req see
system.physmem.wrQLenPdf::27                    37237                       # What write queue length does an incoming req see
system.physmem.wrQLenPdf::28                    37691                       # What write queue length does an incoming req see
system.physmem.wrQLenPdf::29                    33410                       # What write queue length does an incoming req see
system.physmem.wrQLenPdf::30                    32741                       # What write queue length does an incoming req see
system.physmem.wrQLenPdf::31                    32102                       # What write queue length does an incoming req see
system.physmem.wrQLenPdf::32                    31074                       # What write queue length does an incoming req see
system.physmem.wrQLenPdf::33                     1296                       # What write queue length does an incoming req see
system.physmem.wrQLenPdf::34                      957                       # What write queue length does an incoming req see
system.physmem.wrQLenPdf::35                      828                       # What write queue length does an incoming req see
system.physmem.wrQLenPdf::36                      690                       # What write queue length does an incoming req see
system.physmem.wrQLenPdf::37                      631                       # What write queue length does an incoming req see
system.physmem.wrQLenPdf::38                      536                       # What write queue length does an incoming req see
system.physmem.wrQLenPdf::39                      497                       # What write queue length does an incoming req see
system.physmem.wrQLenPdf::40                      490                       # What write queue length does an incoming req see
system.physmem.wrQLenPdf::41                      435                       # What write queue length does an incoming req see
system.physmem.wrQLenPdf::42                      377                       # What write queue length does an incoming req see
system.physmem.wrQLenPdf::43                      362                       # What write queue length does an incoming req see
system.physmem.wrQLenPdf::44                      345                       # What write queue length does an incoming req see
system.physmem.wrQLenPdf::45                      327                       # What write queue length does an incoming req see
system.physmem.wrQLenPdf::46                      314                       # What write queue length does an incoming req see
system.physmem.wrQLenPdf::47                      292                       # What write queue length does an incoming req see
system.physmem.wrQLenPdf::48                      275                       # What write queue length does an incoming req see
system.physmem.wrQLenPdf::49                      255                       # What write queue length does an incoming req see
system.physmem.wrQLenPdf::50                      226                       # What write queue length does an incoming req see
system.physmem.wrQLenPdf::51                      189                       # What write queue length does an incoming req see
system.physmem.wrQLenPdf::52                      169                       # What write queue length does an incoming req see
system.physmem.wrQLenPdf::53                      146                       # What write queue length does an incoming req see
system.physmem.wrQLenPdf::54                      130                       # What write queue length does an incoming req see
system.physmem.wrQLenPdf::55                      123                       # What write queue length does an incoming req see
system.physmem.wrQLenPdf::56                      114                       # What write queue length does an incoming req see
system.physmem.wrQLenPdf::57                      100                       # What write queue length does an incoming req see
system.physmem.wrQLenPdf::58                       71                       # What write queue length does an incoming req see
system.physmem.wrQLenPdf::59                       64                       # What write queue length does an incoming req see
system.physmem.wrQLenPdf::60                       54                       # What write queue length does an incoming req see
system.physmem.wrQLenPdf::61                       36                       # What write queue length does an incoming req see
system.physmem.wrQLenPdf::62                       30                       # What write queue length does an incoming req see
system.physmem.wrQLenPdf::63                       31                       # What write queue length does an incoming req see
system.physmem.bytesPerActivate::samples       274343                       # Bytes accessed per row activation
system.physmem.bytesPerActivate::mean      244.749383                       # Bytes accessed per row activation
system.physmem.bytesPerActivate::gmean     146.139289                       # Bytes accessed per row activation
system.physmem.bytesPerActivate::stdev     288.784627                       # Bytes accessed per row activation
system.physmem.bytesPerActivate::0-127         125431     45.72%     45.72% # Bytes accessed per row activation
system.physmem.bytesPerActivate::128-255        68607     25.01%     70.73% # Bytes accessed per row activation
system.physmem.bytesPerActivate::256-383        24542      8.95%     79.67% # Bytes accessed per row activation
system.physmem.bytesPerActivate::384-511        12363      4.51%     84.18% # Bytes accessed per row activation
system.physmem.bytesPerActivate::512-639         8633      3.15%     87.33% # Bytes accessed per row activation
system.physmem.bytesPerActivate::640-767         5464      1.99%     89.32% # Bytes accessed per row activation
system.physmem.bytesPerActivate::768-895         4467      1.63%     90.95% # Bytes accessed per row activation
system.physmem.bytesPerActivate::896-1023         3979      1.45%     92.40% # Bytes accessed per row activation
system.physmem.bytesPerActivate::1024-1151        20857      7.60%    100.00% # Bytes accessed per row activation
system.physmem.bytesPerActivate::total         274343                       # Bytes accessed per row activation
system.physmem.rdPerTurnAround::samples         29886                       # Reads before turning the bus around for writes
system.physmem.rdPerTurnAround::mean        14.819313                       # Reads before turning the bus around for writes
system.physmem.rdPerTurnAround::stdev       10.330264                       # Reads before turning the bus around for writes
system.physmem.rdPerTurnAround::0-15            12451     41.66%     41.66% # Reads before turning the bus around for writes
system.physmem.rdPerTurnAround::16-31           16121     53.94%     95.60% # Reads before turning the bus around for writes
system.physmem.rdPerTurnAround::32-47            1059      3.54%     99.15% # Reads before turning the bus around for writes
system.physmem.rdPerTurnAround::48-63             175      0.59%     99.73% # Reads before turning the bus around for writes
system.physmem.rdPerTurnAround::64-79              53      0.18%     99.91% # Reads before turning the bus around for writes
system.physmem.rdPerTurnAround::80-95              15      0.05%     99.96% # Reads before turning the bus around for writes
system.physmem.rdPerTurnAround::96-111              5      0.02%     99.98% # Reads before turning the bus around for writes
system.physmem.rdPerTurnAround::112-127             2      0.01%     99.98% # Reads before turning the bus around for writes
system.physmem.rdPerTurnAround::128-143             2      0.01%     99.99% # Reads before turning the bus around for writes
system.physmem.rdPerTurnAround::160-175             1      0.00%     99.99% # Reads before turning the bus around for writes
system.physmem.rdPerTurnAround::256-271             1      0.00%    100.00% # Reads before turning the bus around for writes
system.physmem.rdPerTurnAround::304-319             1      0.00%    100.00% # Reads before turning the bus around for writes
system.physmem.rdPerTurnAround::total           29886                       # Reads before turning the bus around for writes
system.physmem.wrPerTurnAround::samples         29886                       # Writes before turning the bus around for reads
system.physmem.wrPerTurnAround::mean        20.286121                       # Writes before turning the bus around for reads
system.physmem.wrPerTurnAround::gmean       18.739916                       # Writes before turning the bus around for reads
system.physmem.wrPerTurnAround::stdev       12.649180                       # Writes before turning the bus around for reads
system.physmem.wrPerTurnAround::0-7                14      0.05%      0.05% # Writes before turning the bus around for reads
system.physmem.wrPerTurnAround::8-15               35      0.12%      0.16% # Writes before turning the bus around for reads
system.physmem.wrPerTurnAround::16-23           26501     88.67%     88.84% # Writes before turning the bus around for reads
system.physmem.wrPerTurnAround::24-31            1006      3.37%     92.20% # Writes before turning the bus around for reads
system.physmem.wrPerTurnAround::32-39             913      3.05%     95.26% # Writes before turning the bus around for reads
system.physmem.wrPerTurnAround::40-47             433      1.45%     96.71% # Writes before turning the bus around for reads
system.physmem.wrPerTurnAround::48-55             255      0.85%     97.56% # Writes before turning the bus around for reads
system.physmem.wrPerTurnAround::56-63              96      0.32%     97.88% # Writes before turning the bus around for reads
system.physmem.wrPerTurnAround::64-71             167      0.56%     98.44% # Writes before turning the bus around for reads
system.physmem.wrPerTurnAround::72-79             135      0.45%     98.89% # Writes before turning the bus around for reads
system.physmem.wrPerTurnAround::80-87              90      0.30%     99.19% # Writes before turning the bus around for reads
system.physmem.wrPerTurnAround::88-95              37      0.12%     99.32% # Writes before turning the bus around for reads
system.physmem.wrPerTurnAround::96-103             67      0.22%     99.54% # Writes before turning the bus around for reads
system.physmem.wrPerTurnAround::104-111            27      0.09%     99.63% # Writes before turning the bus around for reads
system.physmem.wrPerTurnAround::112-119            22      0.07%     99.71% # Writes before turning the bus around for reads
system.physmem.wrPerTurnAround::120-127            15      0.05%     99.76% # Writes before turning the bus around for reads
system.physmem.wrPerTurnAround::128-135            37      0.12%     99.88% # Writes before turning the bus around for reads
system.physmem.wrPerTurnAround::136-143             6      0.02%     99.90% # Writes before turning the bus around for reads
system.physmem.wrPerTurnAround::144-151             2      0.01%     99.91% # Writes before turning the bus around for reads
system.physmem.wrPerTurnAround::152-159             4      0.01%     99.92% # Writes before turning the bus around for reads
system.physmem.wrPerTurnAround::160-167             7      0.02%     99.94% # Writes before turning the bus around for reads
system.physmem.wrPerTurnAround::168-175             4      0.01%     99.96% # Writes before turning the bus around for reads
system.physmem.wrPerTurnAround::176-183             3      0.01%     99.97% # Writes before turning the bus around for reads
system.physmem.wrPerTurnAround::184-191             3      0.01%     99.98% # Writes before turning the bus around for reads
system.physmem.wrPerTurnAround::192-199             3      0.01%     99.99% # Writes before turning the bus around for reads
system.physmem.wrPerTurnAround::216-223             2      0.01%     99.99% # Writes before turning the bus around for reads
system.physmem.wrPerTurnAround::224-231             1      0.00%    100.00% # Writes before turning the bus around for reads
system.physmem.wrPerTurnAround::256-263             1      0.00%    100.00% # Writes before turning the bus around for reads
system.physmem.wrPerTurnAround::total           29886                       # Writes before turning the bus around for reads
system.physmem.totQLat                    10134279500                       # Total ticks spent queuing
system.physmem.totMemAccLat               18438467000                       # Total ticks spent from burst creation until serviced by the DRAM
system.physmem.totBusLat                   2214450000                       # Total ticks spent in databus transfers
system.physmem.avgQLat                       22882.16                       # Average queueing delay per DRAM burst
system.physmem.avgBusLat                      5000.00                       # Average bus latency per DRAM burst
system.physmem.avgMemAccLat                  41632.16                       # Average memory access latency per DRAM burst
system.physmem.avgRdBW                           0.55                       # Average DRAM read bandwidth in MiByte/s
system.physmem.avgWrBW                           0.76                       # Average achieved write bandwidth in MiByte/s
system.physmem.avgRdBWSys                        0.55                       # Average system read bandwidth in MiByte/s
system.physmem.avgWrBWSys                        0.76                       # Average system write bandwidth in MiByte/s
system.physmem.peakBW                        12800.00                       # Theoretical peak bandwidth in MiByte/s
system.physmem.busUtil                           0.01                       # Data bus utilization in percentage
system.physmem.busUtilRead                       0.00                       # Data bus utilization in percentage for reads
system.physmem.busUtilWrite                      0.01                       # Data bus utilization in percentage for writes
system.physmem.avgRdQLen                         1.00                       # Average read queue length when enqueuing
system.physmem.avgWrQLen                        20.35                       # Average write queue length when enqueuing
system.physmem.readRowHits                     333517                       # Number of row buffer hits during reads
system.physmem.writeRowHits                    441289                       # Number of row buffer hits during writes
system.physmem.readRowHitRate                   75.30                       # Row buffer hit rate for reads
system.physmem.writeRowHitRate                  72.79                       # Row buffer hit rate for writes
system.physmem.avgGap                     48759162.26                       # Average gap between requests
system.physmem.pageHitRate                      73.85                       # Row buffer hit rate, read and write combined
system.physmem_0.actEnergy                 1059231600                       # Energy for activate commands per rank (pJ)
system.physmem_0.preEnergy                  575701500                       # Energy for precharge commands per rank (pJ)
system.physmem_0.readEnergy                1730999400                       # Energy for read commands per rank (pJ)
system.physmem_0.writeEnergy               1990714320                       # Energy for write commands per rank (pJ)
system.physmem_0.refreshEnergy           3304502351280                       # Energy for refresh commands per rank (pJ)
system.physmem_0.actBackEnergy           1163638516455                       # Energy for active background per rank (pJ)
system.physmem_0.preBackEnergy           29573392417500                       # Energy for precharge background per rank (pJ)
system.physmem_0.totalEnergy             34046889932055                       # Total energy per rank (pJ)
system.physmem_0.averagePower              667.714209                       # Core power per rank (mW)
system.physmem_0.memoryStateTime::IDLE   48801846776250                       # Time in different power states
system.physmem_0.memoryStateTime::REF    1689418380000                       # Time in different power states
system.physmem_0.memoryStateTime::PRE_PDN            0                       # Time in different power states
system.physmem_0.memoryStateTime::ACT    103138521750                       # Time in different power states
system.physmem_0.memoryStateTime::ACT_PDN            0                       # Time in different power states
system.physmem_1.actEnergy                 1014703200                       # Energy for activate commands per rank (pJ)
system.physmem_1.preEnergy                  551648625                       # Energy for precharge commands per rank (pJ)
system.physmem_1.readEnergy                1723542600                       # Energy for read commands per rank (pJ)
system.physmem_1.writeEnergy               1937720880                       # Energy for write commands per rank (pJ)
system.physmem_1.refreshEnergy           3304502351280                       # Energy for refresh commands per rank (pJ)
system.physmem_1.actBackEnergy           1160546619285                       # Energy for active background per rank (pJ)
system.physmem_1.preBackEnergy           29579668954500                       # Energy for precharge background per rank (pJ)
system.physmem_1.totalEnergy             34049945540370                       # Total energy per rank (pJ)
system.physmem_1.averagePower              667.696345                       # Core power per rank (mW)
system.physmem_1.memoryStateTime::IDLE   48806318983250                       # Time in different power states
system.physmem_1.memoryStateTime::REF    1689418380000                       # Time in different power states
system.physmem_1.memoryStateTime::PRE_PDN            0                       # Time in different power states
system.physmem_1.memoryStateTime::ACT     98691186250                       # Time in different power states
system.physmem_1.memoryStateTime::ACT_PDN            0                       # Time in different power states
system.realview.nvmem.bytes_read::cpu0.inst           96                       # Number of bytes read from this memory
system.realview.nvmem.bytes_read::cpu0.data           36                       # Number of bytes read from this memory
system.realview.nvmem.bytes_read::total           132                       # Number of bytes read from this memory
system.realview.nvmem.bytes_inst_read::cpu0.inst           96                       # Number of instructions bytes read from this memory
system.realview.nvmem.bytes_inst_read::total           96                       # Number of instructions bytes read from this memory
system.realview.nvmem.num_reads::cpu0.inst           24                       # Number of read requests responded to by this memory
system.realview.nvmem.num_reads::cpu0.data            5                       # Number of read requests responded to by this memory
system.realview.nvmem.num_reads::total             29                       # Number of read requests responded to by this memory
system.realview.nvmem.bw_read::cpu0.inst            2                       # Total read bandwidth from this memory (bytes/s)
system.realview.nvmem.bw_read::cpu0.data            1                       # Total read bandwidth from this memory (bytes/s)
system.realview.nvmem.bw_read::total                3                       # Total read bandwidth from this memory (bytes/s)
system.realview.nvmem.bw_inst_read::cpu0.inst            2                       # Instruction read bandwidth from this memory (bytes/s)
system.realview.nvmem.bw_inst_read::total            2                       # Instruction read bandwidth from this memory (bytes/s)
system.realview.nvmem.bw_total::cpu0.inst            2                       # Total bandwidth to/from this memory (bytes/s)
system.realview.nvmem.bw_total::cpu0.data            1                       # Total bandwidth to/from this memory (bytes/s)
system.realview.nvmem.bw_total::total               3                       # Total bandwidth to/from this memory (bytes/s)
system.cf0.dma_read_full_pages                    122                       # Number of full page size DMA reads (not PRD).
system.cf0.dma_read_bytes                      499712                       # Number of bytes transfered via DMA reads (not PRD).
system.cf0.dma_read_txs                           122                       # Number of DMA read transactions (not PRD).
system.cf0.dma_write_full_pages                  1666                       # Number of full page size DMA writes.
system.cf0.dma_write_bytes                    6826496                       # Number of bytes transfered via DMA writes.
system.cf0.dma_write_txs                         1669                       # Number of DMA write transactions.
system.cpu_clk_domain.clock                       500                       # Clock period in ticks
system.cpu0.dstage2_mmu.stage2_tlb.walker.walks            0                       # Table walker walks requested
system.cpu0.dstage2_mmu.stage2_tlb.walker.walkRequestOrigin_Requested::Data            0                       # Table walker requests started/completed, data/inst
system.cpu0.dstage2_mmu.stage2_tlb.walker.walkRequestOrigin_Requested::Inst            0                       # Table walker requests started/completed, data/inst
system.cpu0.dstage2_mmu.stage2_tlb.walker.walkRequestOrigin_Requested::total            0                       # Table walker requests started/completed, data/inst
system.cpu0.dstage2_mmu.stage2_tlb.walker.walkRequestOrigin_Completed::Data            0                       # Table walker requests started/completed, data/inst
system.cpu0.dstage2_mmu.stage2_tlb.walker.walkRequestOrigin_Completed::Inst            0                       # Table walker requests started/completed, data/inst
system.cpu0.dstage2_mmu.stage2_tlb.walker.walkRequestOrigin_Completed::total            0                       # Table walker requests started/completed, data/inst
system.cpu0.dstage2_mmu.stage2_tlb.walker.walkRequestOrigin::total            0                       # Table walker requests started/completed, data/inst
system.cpu0.dstage2_mmu.stage2_tlb.inst_hits            0                       # ITB inst hits
system.cpu0.dstage2_mmu.stage2_tlb.inst_misses            0                       # ITB inst misses
system.cpu0.dstage2_mmu.stage2_tlb.read_hits            0                       # DTB read hits
system.cpu0.dstage2_mmu.stage2_tlb.read_misses            0                       # DTB read misses
system.cpu0.dstage2_mmu.stage2_tlb.write_hits            0                       # DTB write hits
system.cpu0.dstage2_mmu.stage2_tlb.write_misses            0                       # DTB write misses
system.cpu0.dstage2_mmu.stage2_tlb.flush_tlb            0                       # Number of times complete TLB was flushed
system.cpu0.dstage2_mmu.stage2_tlb.flush_tlb_mva            0                       # Number of times TLB was flushed by MVA
system.cpu0.dstage2_mmu.stage2_tlb.flush_tlb_mva_asid            0                       # Number of times TLB was flushed by MVA & ASID
system.cpu0.dstage2_mmu.stage2_tlb.flush_tlb_asid            0                       # Number of times TLB was flushed by ASID
system.cpu0.dstage2_mmu.stage2_tlb.flush_entries            0                       # Number of entries that have been flushed from TLB
system.cpu0.dstage2_mmu.stage2_tlb.align_faults            0                       # Number of TLB faults due to alignment restrictions
system.cpu0.dstage2_mmu.stage2_tlb.prefetch_faults            0                       # Number of TLB faults due to prefetch
system.cpu0.dstage2_mmu.stage2_tlb.domain_faults            0                       # Number of TLB faults due to domain restrictions
system.cpu0.dstage2_mmu.stage2_tlb.perms_faults            0                       # Number of TLB faults due to permissions restrictions
system.cpu0.dstage2_mmu.stage2_tlb.read_accesses            0                       # DTB read accesses
system.cpu0.dstage2_mmu.stage2_tlb.write_accesses            0                       # DTB write accesses
system.cpu0.dstage2_mmu.stage2_tlb.inst_accesses            0                       # ITB inst accesses
system.cpu0.dstage2_mmu.stage2_tlb.hits             0                       # DTB hits
system.cpu0.dstage2_mmu.stage2_tlb.misses            0                       # DTB misses
system.cpu0.dstage2_mmu.stage2_tlb.accesses            0                       # DTB accesses
system.cpu0.dtb.walker.walks                   113519                       # Table walker walks requested
system.cpu0.dtb.walker.walksLong               113519                       # Table walker walks initiated with long descriptors
system.cpu0.dtb.walker.walkWaitTime::samples       113519                       # Table walker wait (enqueue to first request) latency
system.cpu0.dtb.walker.walkWaitTime::0         113519    100.00%    100.00% # Table walker wait (enqueue to first request) latency
system.cpu0.dtb.walker.walkWaitTime::total       113519                       # Table walker wait (enqueue to first request) latency
system.cpu0.dtb.walker.walksPending::samples 1125423795568                       # Table walker pending requests distribution
system.cpu0.dtb.walker.walksPending::mean     0.567721                       # Table walker pending requests distribution
system.cpu0.dtb.walker.walksPending::stdev     0.495393                       # Table walker pending requests distribution
system.cpu0.dtb.walker.walksPending::0   486496827068     43.23%     43.23% # Table walker pending requests distribution
system.cpu0.dtb.walker.walksPending::1   638926968500     56.77%    100.00% # Table walker pending requests distribution
system.cpu0.dtb.walker.walksPending::total 1125423795568                       # Table walker pending requests distribution
system.cpu0.dtb.walker.walkPageSizes::4K        82853     84.60%     84.60% # Table walker page sizes translated
system.cpu0.dtb.walker.walkPageSizes::2M        15081     15.40%    100.00% # Table walker page sizes translated
system.cpu0.dtb.walker.walkPageSizes::total        97934                       # Table walker page sizes translated
system.cpu0.dtb.walker.walkRequestOrigin_Requested::Data       113519                       # Table walker requests started/completed, data/inst
system.cpu0.dtb.walker.walkRequestOrigin_Requested::Inst            0                       # Table walker requests started/completed, data/inst
system.cpu0.dtb.walker.walkRequestOrigin_Requested::total       113519                       # Table walker requests started/completed, data/inst
system.cpu0.dtb.walker.walkRequestOrigin_Completed::Data        97934                       # Table walker requests started/completed, data/inst
system.cpu0.dtb.walker.walkRequestOrigin_Completed::Inst            0                       # Table walker requests started/completed, data/inst
system.cpu0.dtb.walker.walkRequestOrigin_Completed::total        97934                       # Table walker requests started/completed, data/inst
system.cpu0.dtb.walker.walkRequestOrigin::total       211453                       # Table walker requests started/completed, data/inst
system.cpu0.dtb.inst_hits                           0                       # ITB inst hits
system.cpu0.dtb.inst_misses                         0                       # ITB inst misses
system.cpu0.dtb.read_hits                    78562985                       # DTB read hits
system.cpu0.dtb.read_misses                     85240                       # DTB read misses
system.cpu0.dtb.write_hits                   72018023                       # DTB write hits
system.cpu0.dtb.write_misses                    28279                       # DTB write misses
system.cpu0.dtb.flush_tlb                        1287                       # Number of times complete TLB was flushed
system.cpu0.dtb.flush_tlb_mva                       0                       # Number of times TLB was flushed by MVA
system.cpu0.dtb.flush_tlb_mva_asid              21013                       # Number of times TLB was flushed by MVA & ASID
system.cpu0.dtb.flush_tlb_asid                    511                       # Number of times TLB was flushed by ASID
system.cpu0.dtb.flush_entries                   51639                       # Number of entries that have been flushed from TLB
system.cpu0.dtb.align_faults                        0                       # Number of TLB faults due to alignment restrictions
system.cpu0.dtb.prefetch_faults                  3776                       # Number of TLB faults due to prefetch
system.cpu0.dtb.domain_faults                       0                       # Number of TLB faults due to domain restrictions
system.cpu0.dtb.perms_faults                     9794                       # Number of TLB faults due to permissions restrictions
system.cpu0.dtb.read_accesses                78648225                       # DTB read accesses
system.cpu0.dtb.write_accesses               72046302                       # DTB write accesses
system.cpu0.dtb.inst_accesses                       0                       # ITB inst accesses
system.cpu0.dtb.hits                        150581008                       # DTB hits
system.cpu0.dtb.misses                         113519                       # DTB misses
system.cpu0.dtb.accesses                    150694527                       # DTB accesses
system.cpu0.istage2_mmu.stage2_tlb.walker.walks            0                       # Table walker walks requested
system.cpu0.istage2_mmu.stage2_tlb.walker.walkRequestOrigin_Requested::Data            0                       # Table walker requests started/completed, data/inst
system.cpu0.istage2_mmu.stage2_tlb.walker.walkRequestOrigin_Requested::Inst            0                       # Table walker requests started/completed, data/inst
system.cpu0.istage2_mmu.stage2_tlb.walker.walkRequestOrigin_Requested::total            0                       # Table walker requests started/completed, data/inst
system.cpu0.istage2_mmu.stage2_tlb.walker.walkRequestOrigin_Completed::Data            0                       # Table walker requests started/completed, data/inst
system.cpu0.istage2_mmu.stage2_tlb.walker.walkRequestOrigin_Completed::Inst            0                       # Table walker requests started/completed, data/inst
system.cpu0.istage2_mmu.stage2_tlb.walker.walkRequestOrigin_Completed::total            0                       # Table walker requests started/completed, data/inst
system.cpu0.istage2_mmu.stage2_tlb.walker.walkRequestOrigin::total            0                       # Table walker requests started/completed, data/inst
system.cpu0.istage2_mmu.stage2_tlb.inst_hits            0                       # ITB inst hits
system.cpu0.istage2_mmu.stage2_tlb.inst_misses            0                       # ITB inst misses
system.cpu0.istage2_mmu.stage2_tlb.read_hits            0                       # DTB read hits
system.cpu0.istage2_mmu.stage2_tlb.read_misses            0                       # DTB read misses
system.cpu0.istage2_mmu.stage2_tlb.write_hits            0                       # DTB write hits
system.cpu0.istage2_mmu.stage2_tlb.write_misses            0                       # DTB write misses
system.cpu0.istage2_mmu.stage2_tlb.flush_tlb            0                       # Number of times complete TLB was flushed
system.cpu0.istage2_mmu.stage2_tlb.flush_tlb_mva            0                       # Number of times TLB was flushed by MVA
system.cpu0.istage2_mmu.stage2_tlb.flush_tlb_mva_asid            0                       # Number of times TLB was flushed by MVA & ASID
system.cpu0.istage2_mmu.stage2_tlb.flush_tlb_asid            0                       # Number of times TLB was flushed by ASID
system.cpu0.istage2_mmu.stage2_tlb.flush_entries            0                       # Number of entries that have been flushed from TLB
system.cpu0.istage2_mmu.stage2_tlb.align_faults            0                       # Number of TLB faults due to alignment restrictions
system.cpu0.istage2_mmu.stage2_tlb.prefetch_faults            0                       # Number of TLB faults due to prefetch
system.cpu0.istage2_mmu.stage2_tlb.domain_faults            0                       # Number of TLB faults due to domain restrictions
system.cpu0.istage2_mmu.stage2_tlb.perms_faults            0                       # Number of TLB faults due to permissions restrictions
system.cpu0.istage2_mmu.stage2_tlb.read_accesses            0                       # DTB read accesses
system.cpu0.istage2_mmu.stage2_tlb.write_accesses            0                       # DTB write accesses
system.cpu0.istage2_mmu.stage2_tlb.inst_accesses            0                       # ITB inst accesses
system.cpu0.istage2_mmu.stage2_tlb.hits             0                       # DTB hits
system.cpu0.istage2_mmu.stage2_tlb.misses            0                       # DTB misses
system.cpu0.istage2_mmu.stage2_tlb.accesses            0                       # DTB accesses
system.cpu0.itb.walker.walks                    63212                       # Table walker walks requested
system.cpu0.itb.walker.walksLong                63212                       # Table walker walks initiated with long descriptors
system.cpu0.itb.walker.walkWaitTime::samples        63212                       # Table walker wait (enqueue to first request) latency
system.cpu0.itb.walker.walkWaitTime::0          63212    100.00%    100.00% # Table walker wait (enqueue to first request) latency
system.cpu0.itb.walker.walkWaitTime::total        63212                       # Table walker wait (enqueue to first request) latency
system.cpu0.itb.walker.walksPending::samples 1125423794068                       # Table walker pending requests distribution
system.cpu0.itb.walker.walksPending::mean     0.567766                       # Table walker pending requests distribution
system.cpu0.itb.walker.walksPending::stdev     0.495387                       # Table walker pending requests distribution
system.cpu0.itb.walker.walksPending::0   486446960568     43.22%     43.22% # Table walker pending requests distribution
system.cpu0.itb.walker.walksPending::1   638976833500     56.78%    100.00% # Table walker pending requests distribution
system.cpu0.itb.walker.walksPending::total 1125423794068                       # Table walker pending requests distribution
system.cpu0.itb.walker.walkPageSizes::4K        54978     95.14%     95.14% # Table walker page sizes translated
system.cpu0.itb.walker.walkPageSizes::2M         2806      4.86%    100.00% # Table walker page sizes translated
system.cpu0.itb.walker.walkPageSizes::total        57784                       # Table walker page sizes translated
system.cpu0.itb.walker.walkRequestOrigin_Requested::Data            0                       # Table walker requests started/completed, data/inst
system.cpu0.itb.walker.walkRequestOrigin_Requested::Inst        63212                       # Table walker requests started/completed, data/inst
system.cpu0.itb.walker.walkRequestOrigin_Requested::total        63212                       # Table walker requests started/completed, data/inst
system.cpu0.itb.walker.walkRequestOrigin_Completed::Data            0                       # Table walker requests started/completed, data/inst
system.cpu0.itb.walker.walkRequestOrigin_Completed::Inst        57784                       # Table walker requests started/completed, data/inst
system.cpu0.itb.walker.walkRequestOrigin_Completed::total        57784                       # Table walker requests started/completed, data/inst
system.cpu0.itb.walker.walkRequestOrigin::total       120996                       # Table walker requests started/completed, data/inst
system.cpu0.itb.inst_hits                   421062407                       # ITB inst hits
system.cpu0.itb.inst_misses                     63212                       # ITB inst misses
system.cpu0.itb.read_hits                           0                       # DTB read hits
system.cpu0.itb.read_misses                         0                       # DTB read misses
system.cpu0.itb.write_hits                          0                       # DTB write hits
system.cpu0.itb.write_misses                        0                       # DTB write misses
system.cpu0.itb.flush_tlb                        1287                       # Number of times complete TLB was flushed
system.cpu0.itb.flush_tlb_mva                       0                       # Number of times TLB was flushed by MVA
system.cpu0.itb.flush_tlb_mva_asid              21013                       # Number of times TLB was flushed by MVA & ASID
system.cpu0.itb.flush_tlb_asid                    511                       # Number of times TLB was flushed by ASID
system.cpu0.itb.flush_entries                   36180                       # Number of entries that have been flushed from TLB
system.cpu0.itb.align_faults                        0                       # Number of TLB faults due to alignment restrictions
system.cpu0.itb.prefetch_faults                     0                       # Number of TLB faults due to prefetch
system.cpu0.itb.domain_faults                       0                       # Number of TLB faults due to domain restrictions
system.cpu0.itb.perms_faults                        0                       # Number of TLB faults due to permissions restrictions
system.cpu0.itb.read_accesses                       0                       # DTB read accesses
system.cpu0.itb.write_accesses                      0                       # DTB write accesses
system.cpu0.itb.inst_accesses               421125619                       # ITB inst accesses
system.cpu0.itb.hits                        421062407                       # DTB hits
system.cpu0.itb.misses                          63212                       # DTB misses
system.cpu0.itb.accesses                    421125619                       # DTB accesses
system.cpu0.numCycles                       506570818                       # number of cpu cycles simulated
system.cpu0.numWorkItemsStarted                     0                       # number of work items this cpu started
system.cpu0.numWorkItemsCompleted                   0                       # number of work items this cpu completed
system.cpu0.committedInsts                  420869800                       # Number of instructions committed
system.cpu0.committedOps                    495253800                       # Number of ops (including micro ops) committed
system.cpu0.num_int_alu_accesses            454669961                       # Number of integer alu accesses
system.cpu0.num_fp_alu_accesses                407169                       # Number of float alu accesses
system.cpu0.num_func_calls                   25355566                       # number of times a function call or return occured
system.cpu0.num_conditional_control_insts     64011433                       # number of instructions that are conditional controls
system.cpu0.num_int_insts                   454669961                       # number of integer instructions
system.cpu0.num_fp_insts                       407169                       # number of float instructions
system.cpu0.num_int_register_reads          669912724                       # number of times the integer registers were read
system.cpu0.num_int_register_writes         361261423                       # number of times the integer registers were written
system.cpu0.num_fp_register_reads              658306                       # number of times the floating registers were read
system.cpu0.num_fp_register_writes             339356                       # number of times the floating registers were written
system.cpu0.num_cc_register_reads           110690043                       # number of times the CC registers were read
system.cpu0.num_cc_register_writes          110438637                       # number of times the CC registers were written
system.cpu0.num_mem_refs                    150674741                       # number of memory refs
system.cpu0.num_load_insts                   78636195                       # Number of load instructions
system.cpu0.num_store_insts                  72038546                       # Number of store instructions
system.cpu0.num_idle_cycles              494843268.961767                       # Number of idle cycles
system.cpu0.num_busy_cycles              11727549.038232                       # Number of busy cycles
system.cpu0.not_idle_fraction                0.023151                       # Percentage of non-idle cycles
system.cpu0.idle_fraction                    0.976849                       # Percentage of idle cycles
system.cpu0.Branches                         93932517                       # Number of branches fetched
system.cpu0.op_class::No_OpClass                    1      0.00%      0.00% # Class of executed instruction
system.cpu0.op_class::IntAlu                343715794     69.36%     69.36% # Class of executed instruction
system.cpu0.op_class::IntMult                 1059861      0.21%     69.57% # Class of executed instruction
system.cpu0.op_class::IntDiv                    47874      0.01%     69.58% # Class of executed instruction
system.cpu0.op_class::FloatAdd                      0      0.00%     69.58% # Class of executed instruction
system.cpu0.op_class::FloatCmp                      0      0.00%     69.58% # Class of executed instruction
system.cpu0.op_class::FloatCvt                      0      0.00%     69.58% # Class of executed instruction
system.cpu0.op_class::FloatMult                     0      0.00%     69.58% # Class of executed instruction
system.cpu0.op_class::FloatDiv                      0      0.00%     69.58% # Class of executed instruction
system.cpu0.op_class::FloatSqrt                     0      0.00%     69.58% # Class of executed instruction
system.cpu0.op_class::SimdAdd                       0      0.00%     69.58% # Class of executed instruction
system.cpu0.op_class::SimdAddAcc                    0      0.00%     69.58% # Class of executed instruction
system.cpu0.op_class::SimdAlu                       0      0.00%     69.58% # Class of executed instruction
system.cpu0.op_class::SimdCmp                       0      0.00%     69.58% # Class of executed instruction
system.cpu0.op_class::SimdCvt                       0      0.00%     69.58% # Class of executed instruction
system.cpu0.op_class::SimdMisc                      0      0.00%     69.58% # Class of executed instruction
system.cpu0.op_class::SimdMult                      0      0.00%     69.58% # Class of executed instruction
system.cpu0.op_class::SimdMultAcc                   0      0.00%     69.58% # Class of executed instruction
system.cpu0.op_class::SimdShift                     0      0.00%     69.58% # Class of executed instruction
system.cpu0.op_class::SimdShiftAcc                  0      0.00%     69.58% # Class of executed instruction
system.cpu0.op_class::SimdSqrt                      0      0.00%     69.58% # Class of executed instruction
system.cpu0.op_class::SimdFloatAdd                  0      0.00%     69.58% # Class of executed instruction
system.cpu0.op_class::SimdFloatAlu                  0      0.00%     69.58% # Class of executed instruction
system.cpu0.op_class::SimdFloatCmp                  0      0.00%     69.58% # Class of executed instruction
system.cpu0.op_class::SimdFloatCvt                  1      0.00%     69.58% # Class of executed instruction
system.cpu0.op_class::SimdFloatDiv                  0      0.00%     69.58% # Class of executed instruction
system.cpu0.op_class::SimdFloatMisc             49044      0.01%     69.59% # Class of executed instruction
system.cpu0.op_class::SimdFloatMult                 0      0.00%     69.59% # Class of executed instruction
system.cpu0.op_class::SimdFloatMultAcc              0      0.00%     69.59% # Class of executed instruction
system.cpu0.op_class::SimdFloatSqrt                 0      0.00%     69.59% # Class of executed instruction
system.cpu0.op_class::MemRead                78636195     15.87%     85.46% # Class of executed instruction
system.cpu0.op_class::MemWrite               72038546     14.54%    100.00% # Class of executed instruction
system.cpu0.op_class::IprAccess                     0      0.00%    100.00% # Class of executed instruction
system.cpu0.op_class::InstPrefetch                  0      0.00%    100.00% # Class of executed instruction
system.cpu0.op_class::total                 495547316                       # Class of executed instruction
system.cpu0.kern.inst.arm                           0                       # number of arm instructions executed
system.cpu0.kern.inst.quiesce                   16313                       # number of quiesce instructions executed
system.cpu0.dcache.tags.replacements         10214702                       # number of replacements
system.cpu0.dcache.tags.tagsinuse          511.999720                       # Cycle average of tags in use
system.cpu0.dcache.tags.total_refs          304791830                       # Total number of references to valid blocks.
system.cpu0.dcache.tags.sampled_refs         10215214                       # Sample count of references to valid blocks.
system.cpu0.dcache.tags.avg_refs            29.837048                       # Average number of references to valid blocks.
system.cpu0.dcache.tags.warmup_cycle         33050500                       # Cycle when the warmup percentage was hit.
system.cpu0.dcache.tags.occ_blocks::cpu0.data   496.816800                       # Average occupied blocks per requestor
system.cpu0.dcache.tags.occ_blocks::cpu1.data     4.965643                       # Average occupied blocks per requestor
system.cpu0.dcache.tags.occ_blocks::cpu2.data    10.217276                       # Average occupied blocks per requestor
system.cpu0.dcache.tags.occ_percent::cpu0.data     0.970345                       # Average percentage of cache occupancy
system.cpu0.dcache.tags.occ_percent::cpu1.data     0.009699                       # Average percentage of cache occupancy
system.cpu0.dcache.tags.occ_percent::cpu2.data     0.019956                       # Average percentage of cache occupancy
system.cpu0.dcache.tags.occ_percent::total     0.999999                       # Average percentage of cache occupancy
system.cpu0.dcache.tags.occ_task_id_blocks::1024          512                       # Occupied blocks per task id
system.cpu0.dcache.tags.age_task_id_blocks_1024::0          206                       # Occupied blocks per task id
system.cpu0.dcache.tags.age_task_id_blocks_1024::1          290                       # Occupied blocks per task id
system.cpu0.dcache.tags.age_task_id_blocks_1024::2           16                       # Occupied blocks per task id
system.cpu0.dcache.tags.occ_task_id_percent::1024            1                       # Percentage of cache occupancy per task id
system.cpu0.dcache.tags.tag_accesses       1295808199                       # Number of tag accesses
system.cpu0.dcache.tags.data_accesses      1295808199                       # Number of data accesses
system.cpu0.dcache.ReadReq_hits::cpu0.data     73344072                       # number of ReadReq hits
system.cpu0.dcache.ReadReq_hits::cpu1.data     23670257                       # number of ReadReq hits
system.cpu0.dcache.ReadReq_hits::cpu2.data     59561251                       # number of ReadReq hits
system.cpu0.dcache.ReadReq_hits::total      156575580                       # number of ReadReq hits
system.cpu0.dcache.WriteReq_hits::cpu0.data     68109688                       # number of WriteReq hits
system.cpu0.dcache.WriteReq_hits::cpu1.data     21690684                       # number of WriteReq hits
system.cpu0.dcache.WriteReq_hits::cpu2.data     50098487                       # number of WriteReq hits
system.cpu0.dcache.WriteReq_hits::total     139898859                       # number of WriteReq hits
system.cpu0.dcache.SoftPFReq_hits::cpu0.data       192172                       # number of SoftPFReq hits
system.cpu0.dcache.SoftPFReq_hits::cpu1.data        58926                       # number of SoftPFReq hits
system.cpu0.dcache.SoftPFReq_hits::cpu2.data       140820                       # number of SoftPFReq hits
system.cpu0.dcache.SoftPFReq_hits::total       391918                       # number of SoftPFReq hits
system.cpu0.dcache.WriteInvalidateReq_hits::cpu0.data       149127                       # number of WriteInvalidateReq hits
system.cpu0.dcache.WriteInvalidateReq_hits::cpu1.data        52869                       # number of WriteInvalidateReq hits
system.cpu0.dcache.WriteInvalidateReq_hits::cpu2.data       128452                       # number of WriteInvalidateReq hits
system.cpu0.dcache.WriteInvalidateReq_hits::total       330448                       # number of WriteInvalidateReq hits
system.cpu0.dcache.LoadLockedReq_hits::cpu0.data      1807582                       # number of LoadLockedReq hits
system.cpu0.dcache.LoadLockedReq_hits::cpu1.data       555748                       # number of LoadLockedReq hits
system.cpu0.dcache.LoadLockedReq_hits::cpu2.data      1239879                       # number of LoadLockedReq hits
system.cpu0.dcache.LoadLockedReq_hits::total      3603209                       # number of LoadLockedReq hits
system.cpu0.dcache.StoreCondReq_hits::cpu0.data      1920927                       # number of StoreCondReq hits
system.cpu0.dcache.StoreCondReq_hits::cpu1.data       598964                       # number of StoreCondReq hits
system.cpu0.dcache.StoreCondReq_hits::cpu2.data      1426295                       # number of StoreCondReq hits
system.cpu0.dcache.StoreCondReq_hits::total      3946186                       # number of StoreCondReq hits
system.cpu0.dcache.demand_hits::cpu0.data    141453760                       # number of demand (read+write) hits
system.cpu0.dcache.demand_hits::cpu1.data     45360941                       # number of demand (read+write) hits
system.cpu0.dcache.demand_hits::cpu2.data    109659738                       # number of demand (read+write) hits
system.cpu0.dcache.demand_hits::total       296474439                       # number of demand (read+write) hits
system.cpu0.dcache.overall_hits::cpu0.data    141645932                       # number of overall hits
system.cpu0.dcache.overall_hits::cpu1.data     45419867                       # number of overall hits
system.cpu0.dcache.overall_hits::cpu2.data    109800558                       # number of overall hits
system.cpu0.dcache.overall_hits::total      296866357                       # number of overall hits
system.cpu0.dcache.ReadReq_misses::cpu0.data      2534039                       # number of ReadReq misses
system.cpu0.dcache.ReadReq_misses::cpu1.data       789361                       # number of ReadReq misses
system.cpu0.dcache.ReadReq_misses::cpu2.data      4745712                       # number of ReadReq misses
system.cpu0.dcache.ReadReq_misses::total      8069112                       # number of ReadReq misses
system.cpu0.dcache.WriteReq_misses::cpu0.data      1082533                       # number of WriteReq misses
system.cpu0.dcache.WriteReq_misses::cpu1.data       339457                       # number of WriteReq misses
system.cpu0.dcache.WriteReq_misses::cpu2.data      4257122                       # number of WriteReq misses
system.cpu0.dcache.WriteReq_misses::total      5679112                       # number of WriteReq misses
system.cpu0.dcache.SoftPFReq_misses::cpu0.data       624926                       # number of SoftPFReq misses
system.cpu0.dcache.SoftPFReq_misses::cpu1.data       200468                       # number of SoftPFReq misses
system.cpu0.dcache.SoftPFReq_misses::cpu2.data       451799                       # number of SoftPFReq misses
system.cpu0.dcache.SoftPFReq_misses::total      1277193                       # number of SoftPFReq misses
system.cpu0.dcache.WriteInvalidateReq_misses::cpu0.data       751391                       # number of WriteInvalidateReq misses
system.cpu0.dcache.WriteInvalidateReq_misses::cpu1.data       141795                       # number of WriteInvalidateReq misses
system.cpu0.dcache.WriteInvalidateReq_misses::cpu2.data       340989                       # number of WriteInvalidateReq misses
system.cpu0.dcache.WriteInvalidateReq_misses::total      1234175                       # number of WriteInvalidateReq misses
system.cpu0.dcache.LoadLockedReq_misses::cpu0.data       114175                       # number of LoadLockedReq misses
system.cpu0.dcache.LoadLockedReq_misses::cpu1.data        43476                       # number of LoadLockedReq misses
system.cpu0.dcache.LoadLockedReq_misses::cpu2.data       234793                       # number of LoadLockedReq misses
system.cpu0.dcache.LoadLockedReq_misses::total       392444                       # number of LoadLockedReq misses
system.cpu0.dcache.StoreCondReq_misses::cpu0.data            1                       # number of StoreCondReq misses
system.cpu0.dcache.StoreCondReq_misses::cpu1.data            2                       # number of StoreCondReq misses
system.cpu0.dcache.StoreCondReq_misses::cpu2.data            4                       # number of StoreCondReq misses
system.cpu0.dcache.StoreCondReq_misses::total            7                       # number of StoreCondReq misses
system.cpu0.dcache.demand_misses::cpu0.data      3616572                       # number of demand (read+write) misses
system.cpu0.dcache.demand_misses::cpu1.data      1128818                       # number of demand (read+write) misses
system.cpu0.dcache.demand_misses::cpu2.data      9002834                       # number of demand (read+write) misses
system.cpu0.dcache.demand_misses::total      13748224                       # number of demand (read+write) misses
system.cpu0.dcache.overall_misses::cpu0.data      4241498                       # number of overall misses
system.cpu0.dcache.overall_misses::cpu1.data      1329286                       # number of overall misses
system.cpu0.dcache.overall_misses::cpu2.data      9454633                       # number of overall misses
system.cpu0.dcache.overall_misses::total     15025417                       # number of overall misses
system.cpu0.dcache.ReadReq_miss_latency::cpu1.data  12043106000                       # number of ReadReq miss cycles
system.cpu0.dcache.ReadReq_miss_latency::cpu2.data  81409169465                       # number of ReadReq miss cycles
system.cpu0.dcache.ReadReq_miss_latency::total  93452275465                       # number of ReadReq miss cycles
system.cpu0.dcache.WriteReq_miss_latency::cpu1.data   9835188618                       # number of WriteReq miss cycles
system.cpu0.dcache.WriteReq_miss_latency::cpu2.data 156717505281                       # number of WriteReq miss cycles
[...]
system.l2c.demand_avg_mshr_miss_latency::cpu2.dtb.walker 66976.670723                       # average overall mshr miss latency
system.l2c.demand_avg_mshr_miss_latency::cpu2.itb.walker 69117.382796                       # average overall mshr miss latency
system.l2c.demand_avg_mshr_miss_latency::cpu2.inst 66302.482521                       # average overall mshr miss latency
system.l2c.demand_avg_mshr_miss_latency::cpu2.data 79214.264043                       # average overall mshr miss latency
system.l2c.demand_avg_mshr_miss_latency::total 73157.282017                       # average overall mshr miss latency
system.l2c.overall_avg_mshr_miss_latency::cpu1.dtb.walker 66900.462963                       # average overall mshr miss latency
system.l2c.overall_avg_mshr_miss_latency::cpu1.itb.walker 68768.736617                       # average overall mshr miss latency
system.l2c.overall_avg_mshr_miss_latency::cpu1.inst 60948.982810                       # average overall mshr miss latency
system.l2c.overall_avg_mshr_miss_latency::cpu1.data 62052.824983                       # average overall mshr miss latency
system.l2c.overall_avg_mshr_miss_latency::cpu2.dtb.walker 66976.670723                       # average overall mshr miss latency
system.l2c.overall_avg_mshr_miss_latency::cpu2.itb.walker 69117.382796                       # average overall mshr miss latency
system.l2c.overall_avg_mshr_miss_latency::cpu2.inst 66302.482521                       # average overall mshr miss latency
system.l2c.overall_avg_mshr_miss_latency::cpu2.data 79214.264043                       # average overall mshr miss latency
system.l2c.overall_avg_mshr_miss_latency::total 73157.282017                       # average overall mshr miss latency
system.l2c.ReadReq_avg_mshr_uncacheable_latency::cpu1.data          inf                       # average ReadReq mshr uncacheable latency
system.l2c.ReadReq_avg_mshr_uncacheable_latency::cpu2.data          inf                       # average ReadReq mshr uncacheable latency
system.l2c.ReadReq_avg_mshr_uncacheable_latency::total          inf                       # average ReadReq mshr uncacheable latency
system.l2c.WriteReq_avg_mshr_uncacheable_latency::cpu1.data          inf                       # average WriteReq mshr uncacheable latency
system.l2c.WriteReq_avg_mshr_uncacheable_latency::cpu2.data          inf                       # average WriteReq mshr uncacheable latency
system.l2c.WriteReq_avg_mshr_uncacheable_latency::total          inf                       # average WriteReq mshr uncacheable latency
system.l2c.overall_avg_mshr_uncacheable_latency::cpu1.data          inf                       # average overall mshr uncacheable latency
system.l2c.overall_avg_mshr_uncacheable_latency::cpu2.data          inf                       # average overall mshr uncacheable latency
system.l2c.overall_avg_mshr_uncacheable_latency::total          inf                       # average overall mshr uncacheable latency
system.l2c.no_allocate_misses                       0                       # Number of misses that were no-allocate
system.membus.trans_dist::ReadReq              464425                       # Transaction distribution
system.membus.trans_dist::ReadResp             464425                       # Transaction distribution
system.membus.trans_dist::WriteReq              33772                       # Transaction distribution
system.membus.trans_dist::WriteResp             33772                       # Transaction distribution
system.membus.trans_dist::Writeback           1204773                       # Transaction distribution
system.membus.trans_dist::WriteInvalidateReq       613884                       # Transaction distribution
system.membus.trans_dist::WriteInvalidateResp       613884                       # Transaction distribution
system.membus.trans_dist::UpgradeReq            36393                       # Transaction distribution
system.membus.trans_dist::SCUpgradeReq              4                       # Transaction distribution
system.membus.trans_dist::UpgradeResp           36397                       # Transaction distribution
system.membus.trans_dist::ReadExReq            501696                       # Transaction distribution
system.membus.trans_dist::ReadExResp           501696                       # Transaction distribution
system.membus.pkt_count_system.l2c.mem_side::system.bridge.slave       122952                       # Packet count per connected master and slave (bytes)
system.membus.pkt_count_system.l2c.mem_side::system.realview.nvmem.port           58                       # Packet count per connected master and slave (bytes)
system.membus.pkt_count_system.l2c.mem_side::system.realview.gic.pio         6750                       # Packet count per connected master and slave (bytes)
system.membus.pkt_count_system.l2c.mem_side::system.physmem.port      4037435                       # Packet count per connected master and slave (bytes)
system.membus.pkt_count_system.l2c.mem_side::total      4167195                       # Packet count per connected master and slave (bytes)
system.membus.pkt_count_system.iocache.mem_side::system.physmem.port       337326                       # Packet count per connected master and slave (bytes)
system.membus.pkt_count_system.iocache.mem_side::total       337326                       # Packet count per connected master and slave (bytes)
system.membus.pkt_count::total                4504521                       # Packet count per connected master and slave (bytes)
system.membus.pkt_size_system.l2c.mem_side::system.bridge.slave       156082                       # Cumulative packet size per connected master and slave (bytes)
system.membus.pkt_size_system.l2c.mem_side::system.realview.nvmem.port          132                       # Cumulative packet size per connected master and slave (bytes)
system.membus.pkt_size_system.l2c.mem_side::system.realview.gic.pio        13500                       # Cumulative packet size per connected master and slave (bytes)
system.membus.pkt_size_system.l2c.mem_side::system.physmem.port    159270496                       # Cumulative packet size per connected master and slave (bytes)
system.membus.pkt_size_system.l2c.mem_side::total    159440210                       # Cumulative packet size per connected master and slave (bytes)
system.membus.pkt_size_system.iocache.mem_side::system.physmem.port     14195136                       # Cumulative packet size per connected master and slave (bytes)
system.membus.pkt_size_system.iocache.mem_side::total     14195136                       # Cumulative packet size per connected master and slave (bytes)
system.membus.pkt_size::total               173635346                       # Cumulative packet size per connected master and slave (bytes)
system.membus.snoops                              600                       # Total snoops (count)
system.membus.snoop_fanout::samples           2744389                       # Request fanout histogram
system.membus.snoop_fanout::mean                    1                       # Request fanout histogram
system.membus.snoop_fanout::stdev                   0                       # Request fanout histogram
system.membus.snoop_fanout::underflows              0      0.00%      0.00% # Request fanout histogram
system.membus.snoop_fanout::0                       0      0.00%      0.00% # Request fanout histogram
system.membus.snoop_fanout::1                 2744389    100.00%    100.00% # Request fanout histogram
system.membus.snoop_fanout::2                       0      0.00%    100.00% # Request fanout histogram
system.membus.snoop_fanout::overflows               0      0.00%    100.00% # Request fanout histogram
system.membus.snoop_fanout::min_value               1                       # Request fanout histogram
system.membus.snoop_fanout::max_value               1                       # Request fanout histogram
system.membus.snoop_fanout::total             2744389                       # Request fanout histogram
system.membus.reqLayer0.occupancy            42480999                       # Layer occupancy (ticks)
system.membus.reqLayer0.utilization               0.0                       # Layer utilization (%)
system.membus.reqLayer2.occupancy             1323000                       # Layer occupancy (ticks)
system.membus.reqLayer2.utilization               0.0                       # Layer utilization (%)
system.membus.reqLayer5.occupancy          6141947499                       # Layer occupancy (ticks)
system.membus.reqLayer5.utilization               0.0                       # Layer utilization (%)
system.membus.respLayer2.occupancy         4337026701                       # Layer occupancy (ticks)
system.membus.respLayer2.utilization              0.0                       # Layer utilization (%)
system.membus.respLayer3.occupancy           38901629                       # Layer occupancy (ticks)
system.membus.respLayer3.utilization              0.0                       # Layer utilization (%)
system.realview.ethernet.txBytes                  966                       # Bytes Transmitted
system.realview.ethernet.txPackets                  3                       # Number of Packets Transmitted
system.realview.ethernet.txIpChecksums              0                       # Number of tx IP Checksums done by device
system.realview.ethernet.txTcpChecksums             0                       # Number of tx TCP Checksums done by device
system.realview.ethernet.txUdpChecksums             0                       # Number of tx UDP Checksums done by device
system.realview.ethernet.descDMAReads               0                       # Number of descriptors the device read w/ DMA
system.realview.ethernet.descDMAWrites              0                       # Number of descriptors the device wrote w/ DMA
system.realview.ethernet.descDmaReadBytes            0                       # number of descriptor bytes read w/ DMA
system.realview.ethernet.descDmaWriteBytes            0                       # number of descriptor bytes write w/ DMA
system.realview.ethernet.totBandwidth             151                       # Total Bandwidth (bits/s)
system.realview.ethernet.totPackets                 3                       # Total Packets
system.realview.ethernet.totBytes                 966                       # Total Bytes
system.realview.ethernet.totPPS                     0                       # Total Tranmission Rate (packets/s)
system.realview.ethernet.txBandwidth              151                       # Transmit Bandwidth (bits/s)
system.realview.ethernet.txPPS                      0                       # Packet Tranmission Rate (packets/s)
system.realview.ethernet.postedSwi                  0                       # number of software interrupts posted to CPU
system.realview.ethernet.coalescedSwi               0                       # average number of Swi's coalesced into each post
system.realview.ethernet.totalSwi                   0                       # total number of Swi written to ISR
system.realview.ethernet.postedRxIdle               0                       # number of rxIdle interrupts posted to CPU
system.realview.ethernet.coalescedRxIdle            0                       # average number of RxIdle's coalesced into each post
system.realview.ethernet.totalRxIdle                0                       # total number of RxIdle written to ISR
system.realview.ethernet.postedRxOk                 0                       # number of RxOk interrupts posted to CPU
system.realview.ethernet.coalescedRxOk              0                       # average number of RxOk's coalesced into each post
system.realview.ethernet.totalRxOk                  0                       # total number of RxOk written to ISR
system.realview.ethernet.postedRxDesc               0                       # number of RxDesc interrupts posted to CPU
system.realview.ethernet.coalescedRxDesc            0                       # average number of RxDesc's coalesced into each post
system.realview.ethernet.totalRxDesc                0                       # total number of RxDesc written to ISR
system.realview.ethernet.postedTxOk                 0                       # number of TxOk interrupts posted to CPU
system.realview.ethernet.coalescedTxOk              0                       # average number of TxOk's coalesced into each post
system.realview.ethernet.totalTxOk                  0                       # total number of TxOk written to ISR
system.realview.ethernet.postedTxIdle               0                       # number of TxIdle interrupts posted to CPU
system.realview.ethernet.coalescedTxIdle            0                       # average number of TxIdle's coalesced into each post
system.realview.ethernet.totalTxIdle                0                       # total number of TxIdle written to ISR
system.realview.ethernet.postedTxDesc               0                       # number of TxDesc interrupts posted to CPU
system.realview.ethernet.coalescedTxDesc            0                       # average number of TxDesc's coalesced into each post
system.realview.ethernet.totalTxDesc                0                       # total number of TxDesc written to ISR
system.realview.ethernet.postedRxOrn                0                       # number of RxOrn posted to CPU
system.realview.ethernet.coalescedRxOrn             0                       # average number of RxOrn's coalesced into each post
system.realview.ethernet.totalRxOrn                 0                       # total number of RxOrn written to ISR
system.realview.ethernet.coalescedTotal             0                       # average number of interrupts coalesced into each post
system.realview.ethernet.postedInterrupts           18                       # number of posts to CPU
system.realview.ethernet.droppedPackets             0                       # number of packets dropped
system.toL2Bus.trans_dist::ReadReq           22911195                       # Transaction distribution
system.toL2Bus.trans_dist::ReadResp          22910936                       # Transaction distribution
system.toL2Bus.trans_dist::WriteReq             33772                       # Transaction distribution
system.toL2Bus.trans_dist::WriteResp            33772                       # Transaction distribution
system.toL2Bus.trans_dist::Writeback          7876656                       # Transaction distribution
system.toL2Bus.trans_dist::WriteInvalidateReq      1266229                       # Transaction distribution
system.toL2Bus.trans_dist::WriteInvalidateResp      1231725                       # Transaction distribution
system.toL2Bus.trans_dist::UpgradeReq           45591                       # Transaction distribution
system.toL2Bus.trans_dist::SCUpgradeReq             7                       # Transaction distribution
system.toL2Bus.trans_dist::UpgradeResp          45598                       # Transaction distribution
system.toL2Bus.trans_dist::ReadExReq          2107463                       # Transaction distribution
system.toL2Bus.trans_dist::ReadExResp         2107463                       # Transaction distribution
system.toL2Bus.pkt_count_system.cpu0.icache.mem_side::system.l2c.cpu_side     29129582                       # Packet count per connected master and slave (bytes)
system.toL2Bus.pkt_count_system.cpu0.dcache.mem_side::system.l2c.cpu_side     28533410                       # Packet count per connected master and slave (bytes)
system.toL2Bus.pkt_count_system.cpu0.itb.walker.dma::system.l2c.cpu_side       850957                       # Packet count per connected master and slave (bytes)
system.toL2Bus.pkt_count_system.cpu0.dtb.walker.dma::system.l2c.cpu_side      1760816                       # Packet count per connected master and slave (bytes)
system.toL2Bus.pkt_count::total              60274765                       # Packet count per connected master and slave (bytes)
system.toL2Bus.pkt_size_system.cpu0.icache.mem_side::system.l2c.cpu_side    929555284                       # Cumulative packet size per connected master and slave (bytes)
system.toL2Bus.pkt_size_system.cpu0.dcache.mem_side::system.l2c.cpu_side   1158084670                       # Cumulative packet size per connected master and slave (bytes)
system.toL2Bus.pkt_size_system.cpu0.itb.walker.dma::system.l2c.cpu_side      3113192                       # Cumulative packet size per connected master and slave (bytes)
system.toL2Bus.pkt_size_system.cpu0.dtb.walker.dma::system.l2c.cpu_side      6291728                       # Cumulative packet size per connected master and slave (bytes)
system.toL2Bus.pkt_size::total             2097044874                       # Cumulative packet size per connected master and slave (bytes)
system.toL2Bus.snoops                          377016                       # Total snoops (count)
system.toL2Bus.snoop_fanout::samples         34216462                       # Request fanout histogram
system.toL2Bus.snoop_fanout::mean            5.003376                       # Request fanout histogram
system.toL2Bus.snoop_fanout::stdev           0.058008                       # Request fanout histogram
system.toL2Bus.snoop_fanout::underflows             0      0.00%      0.00% # Request fanout histogram
system.toL2Bus.snoop_fanout::0                      0      0.00%      0.00% # Request fanout histogram
system.toL2Bus.snoop_fanout::1                      0      0.00%      0.00% # Request fanout histogram
system.toL2Bus.snoop_fanout::2                      0      0.00%      0.00% # Request fanout histogram
system.toL2Bus.snoop_fanout::3                      0      0.00%      0.00% # Request fanout histogram
system.toL2Bus.snoop_fanout::4                      0      0.00%      0.00% # Request fanout histogram
system.toL2Bus.snoop_fanout::5               34100938     99.66%     99.66% # Request fanout histogram
system.toL2Bus.snoop_fanout::6                 115524      0.34%    100.00% # Request fanout histogram
system.toL2Bus.snoop_fanout::overflows              0      0.00%    100.00% # Request fanout histogram
system.toL2Bus.snoop_fanout::min_value              5                       # Request fanout histogram
system.toL2Bus.snoop_fanout::max_value              6                       # Request fanout histogram
system.toL2Bus.snoop_fanout::total           34216462                       # Request fanout histogram
system.toL2Bus.reqLayer0.occupancy        26470973727                       # Layer occupancy (ticks)
system.toL2Bus.reqLayer0.utilization              0.1                       # Layer utilization (%)
system.toL2Bus.snoopLayer0.occupancy           972000                       # Layer occupancy (ticks)
system.toL2Bus.snoopLayer0.utilization            0.0                       # Layer utilization (%)
system.toL2Bus.respLayer0.occupancy       35634626823                       # Layer occupancy (ticks)
system.toL2Bus.respLayer0.utilization             0.1                       # Layer utilization (%)
system.toL2Bus.respLayer1.occupancy       21264279204                       # Layer occupancy (ticks)
system.toL2Bus.respLayer1.utilization             0.0                       # Layer utilization (%)
system.toL2Bus.respLayer2.occupancy         276240027                       # Layer occupancy (ticks)
system.toL2Bus.respLayer2.utilization             0.0                       # Layer utilization (%)
system.toL2Bus.respLayer3.occupancy         654460701                       # Layer occupancy (ticks)
system.toL2Bus.respLayer3.utilization             0.0                       # Layer utilization (%)
system.cpu2.kern.inst.arm                           0                       # number of arm instructions executed
system.cpu2.kern.inst.quiesce                       0                       # number of quiesce instructions executed

---------- End Simulation Statistics   ----------
