
---------- Begin Simulation Statistics ----------
sim_seconds                                 51.316276                       # Number of seconds simulated
sim_ticks                                51316275690000                       # Number of ticks simulated
final_tick                               51316275690000                       # Number of ticks from beginning of simulation (restored from checkpoints and never reset)
sim_freq                                 1000000000000                       # Frequency of simulated ticks
host_inst_rate                                 326587                       # Simulator instruction rate (inst/s)
host_op_rate                                   383768                       # Simulator op (including micro ops) rate (op/s)
host_tick_rate                            19561029283                       # Simulator tick rate (ticks/s)
host_mem_usage                                 692584                       # Number of bytes of host memory used
host_seconds                                  2623.39                       # Real time elapsed on the host
sim_insts                                   856765339                       # Number of instructions simulated
sim_ops                                    1006773904                       # Number of ops (including micro ops) simulated
system.voltage_domain.voltage                       1                       # Voltage in Volts
system.clk_domain.clock                          1000                       # Clock period in ticks
system.physmem.pwrStateResidencyTicks::UNDEFINED 51316275690000                       # Cumulative time (in ticks) in various power states
system.physmem.bytes_read::cpu0.dtb.walker        86272                       # Number of bytes read from this memory
system.physmem.bytes_read::cpu0.itb.walker        86656                       # Number of bytes read from this memory
system.physmem.bytes_read::cpu0.inst          2383476                       # Number of bytes read from this memory
system.physmem.bytes_read::cpu0.data         19569480                       # Number of bytes read from this memory
system.physmem.bytes_read::cpu1.dtb.walker        22528                       # Number of bytes read from this memory
system.physmem.bytes_read::cpu1.itb.walker        19008                       # Number of bytes read from this memory
system.physmem.bytes_read::cpu1.inst           645440                       # Number of bytes read from this memory
system.physmem.bytes_read::cpu1.data          5197376                       # Number of bytes read from this memory
system.physmem.bytes_read::cpu2.dtb.walker        31936                       # Number of bytes read from this memory
system.physmem.bytes_read::cpu2.itb.walker        29376                       # Number of bytes read from this memory
system.physmem.bytes_read::cpu2.inst          1640192                       # Number of bytes read from this memory
system.physmem.bytes_read::cpu2.data          6901376                       # Number of bytes read from this memory
system.physmem.bytes_read::cpu3.dtb.walker        81152                       # Number of bytes read from this memory
system.physmem.bytes_read::cpu3.itb.walker        66816                       # Number of bytes read from this memory
system.physmem.bytes_read::cpu3.inst          1624448                       # Number of bytes read from this memory
system.physmem.bytes_read::cpu3.data         11589312                       # Number of bytes read from this memory
system.physmem.bytes_read::realview.ide        437504                       # Number of bytes read from this memory
system.physmem.bytes_read::total             50412348                       # Number of bytes read from this memory
system.physmem.bytes_inst_read::cpu0.inst      2383476                       # Number of instructions bytes read from this memory
system.physmem.bytes_inst_read::cpu1.inst       645440                       # Number of instructions bytes read from this memory
system.physmem.bytes_inst_read::cpu2.inst      1640192                       # Number of instructions bytes read from this memory
system.physmem.bytes_inst_read::cpu3.inst      1624448                       # Number of instructions bytes read from this memory
system.physmem.bytes_inst_read::total         6293556                       # Number of instructions bytes read from this memory
system.physmem.bytes_written::writebacks     70023744                       # Number of bytes written to this memory
system.physmem.bytes_written::cpu0.data         20580                       # Number of bytes written to this memory
system.physmem.bytes_written::total          70044324                       # Number of bytes written to this memory
system.physmem.num_reads::cpu0.dtb.walker         1348                       # Number of read requests responded to by this memory
system.physmem.num_reads::cpu0.itb.walker         1354                       # Number of read requests responded to by this memory
system.physmem.num_reads::cpu0.inst             77649                       # Number of read requests responded to by this memory
system.physmem.num_reads::cpu0.data            305786                       # Number of read requests responded to by this memory
system.physmem.num_reads::cpu1.dtb.walker          352                       # Number of read requests responded to by this memory
system.physmem.num_reads::cpu1.itb.walker          297                       # Number of read requests responded to by this memory
system.physmem.num_reads::cpu1.inst             10085                       # Number of read requests responded to by this memory
system.physmem.num_reads::cpu1.data             81209                       # Number of read requests responded to by this memory
system.physmem.num_reads::cpu2.dtb.walker          499                       # Number of read requests responded to by this memory
system.physmem.num_reads::cpu2.itb.walker          459                       # Number of read requests responded to by this memory
system.physmem.num_reads::cpu2.inst             25628                       # Number of read requests responded to by this memory
system.physmem.num_reads::cpu2.data            107834                       # Number of read requests responded to by this memory
system.physmem.num_reads::cpu3.dtb.walker         1268                       # Number of read requests responded to by this memory
system.physmem.num_reads::cpu3.itb.walker         1044                       # Number of read requests responded to by this memory
system.physmem.num_reads::cpu3.inst             25382                       # Number of read requests responded to by this memory
system.physmem.num_reads::cpu3.data            181083                       # Number of read requests responded to by this memory
system.physmem.num_reads::realview.ide           6836                       # Number of read requests responded to by this memory
system.physmem.num_reads::total                828113                       # Number of read requests responded to by this memory
system.physmem.num_writes::writebacks         1094121                       # Number of write requests responded to by this memory
system.physmem.num_writes::cpu0.data             2573                       # Number of write requests responded to by this memory
system.physmem.num_writes::total              1096694                       # Number of write requests responded to by this memory
system.physmem.bw_read::cpu0.dtb.walker          1681                       # Total read bandwidth from this memory (bytes/s)
system.physmem.bw_read::cpu0.itb.walker          1689                       # Total read bandwidth from this memory (bytes/s)
system.physmem.bw_read::cpu0.inst               46447                       # Total read bandwidth from this memory (bytes/s)
system.physmem.bw_read::cpu0.data              381350                       # Total read bandwidth from this memory (bytes/s)
system.physmem.bw_read::cpu1.dtb.walker           439                       # Total read bandwidth from this memory (bytes/s)
system.physmem.bw_read::cpu1.itb.walker           370                       # Total read bandwidth from this memory (bytes/s)
system.physmem.bw_read::cpu1.inst               12578                       # Total read bandwidth from this memory (bytes/s)
system.physmem.bw_read::cpu1.data              101281                       # Total read bandwidth from this memory (bytes/s)
system.physmem.bw_read::cpu2.dtb.walker           622                       # Total read bandwidth from this memory (bytes/s)
system.physmem.bw_read::cpu2.itb.walker           572                       # Total read bandwidth from this memory (bytes/s)
system.physmem.bw_read::cpu2.inst               31962                       # Total read bandwidth from this memory (bytes/s)
system.physmem.bw_read::cpu2.data              134487                       # Total read bandwidth from this memory (bytes/s)
system.physmem.bw_read::cpu3.dtb.walker          1581                       # Total read bandwidth from this memory (bytes/s)
system.physmem.bw_read::cpu3.itb.walker          1302                       # Total read bandwidth from this memory (bytes/s)
system.physmem.bw_read::cpu3.inst               31656                       # Total read bandwidth from this memory (bytes/s)
system.physmem.bw_read::cpu3.data              225841                       # Total read bandwidth from this memory (bytes/s)
system.physmem.bw_read::realview.ide             8526                       # Total read bandwidth from this memory (bytes/s)
system.physmem.bw_read::total                  982385                       # Total read bandwidth from this memory (bytes/s)
system.physmem.bw_inst_read::cpu0.inst          46447                       # Instruction read bandwidth from this memory (bytes/s)
system.physmem.bw_inst_read::cpu1.inst          12578                       # Instruction read bandwidth from this memory (bytes/s)
system.physmem.bw_inst_read::cpu2.inst          31962                       # Instruction read bandwidth from this memory (bytes/s)
system.physmem.bw_inst_read::cpu3.inst          31656                       # Instruction read bandwidth from this memory (bytes/s)
system.physmem.bw_inst_read::total             122642                       # Instruction read bandwidth from this memory (bytes/s)
system.physmem.bw_write::writebacks           1364552                       # Write bandwidth from this memory (bytes/s)
system.physmem.bw_write::cpu0.data                401                       # Write bandwidth from this memory (bytes/s)
system.physmem.bw_write::total                1364953                       # Write bandwidth from this memory (bytes/s)
system.physmem.bw_total::writebacks           1364552                       # Total bandwidth to/from this memory (bytes/s)
system.physmem.bw_total::cpu0.dtb.walker         1681                       # Total bandwidth to/from this memory (bytes/s)
system.physmem.bw_total::cpu0.itb.walker         1689                       # Total bandwidth to/from this memory (bytes/s)
system.physmem.bw_total::cpu0.inst              46447                       # Total bandwidth to/from this memory (bytes/s)
system.physmem.bw_total::cpu0.data             381751                       # Total bandwidth to/from this memory (bytes/s)
system.physmem.bw_total::cpu1.dtb.walker          439                       # Total bandwidth to/from this memory (bytes/s)
system.physmem.bw_total::cpu1.itb.walker          370                       # Total bandwidth to/from this memory (bytes/s)
system.physmem.bw_total::cpu1.inst              12578                       # Total bandwidth to/from this memory (bytes/s)
system.physmem.bw_total::cpu1.data             101281                       # Total bandwidth to/from this memory (bytes/s)
system.physmem.bw_total::cpu2.dtb.walker          622                       # Total bandwidth to/from this memory (bytes/s)
system.physmem.bw_total::cpu2.itb.walker          572                       # Total bandwidth to/from this memory (bytes/s)
system.physmem.bw_total::cpu2.inst              31962                       # Total bandwidth to/from this memory (bytes/s)
system.physmem.bw_total::cpu2.data             134487                       # Total bandwidth to/from this memory (bytes/s)
system.physmem.bw_total::cpu3.dtb.walker         1581                       # Total bandwidth to/from this memory (bytes/s)
system.physmem.bw_total::cpu3.itb.walker         1302                       # Total bandwidth to/from this memory (bytes/s)
system.physmem.bw_total::cpu3.inst              31656                       # Total bandwidth to/from this memory (bytes/s)
system.physmem.bw_total::cpu3.data             225841                       # Total bandwidth to/from this memory (bytes/s)
system.physmem.bw_total::realview.ide            8526                       # Total bandwidth to/from this memory (bytes/s)
system.physmem.bw_total::total                2347339                       # Total bandwidth to/from this memory (bytes/s)
system.physmem.readReqs                        435200                       # Number of read requests accepted
system.physmem.writeReqs                       483804                       # Number of write requests accepted
system.physmem.readBursts                      435200                       # Number of DRAM read bursts, including those serviced by the write queue
system.physmem.writeBursts                     483804                       # Number of DRAM write bursts, including those merged in the write queue
system.physmem.bytesReadDRAM                 27836736                       # Total number of bytes read from DRAM
system.physmem.bytesReadWrQ                     16064                       # Total number of bytes read from write queue
system.physmem.bytesWritten                  30961600                       # Total number of bytes written to DRAM
system.physmem.bytesReadSys                  27852800                       # Total read bytes from the system interface side
system.physmem.bytesWrittenSys               30963456                       # Total written bytes from the system interface side
system.physmem.servicedByWrQ                      251                       # Number of DRAM read bursts serviced by the write queue
system.physmem.mergedWrBursts                       0                       # Number of DRAM write bursts merged with an existing one
system.physmem.neitherReadNorWriteReqs              0                       # Number of requests that are neither read nor write
system.physmem.perBankRdBursts::0               27905                       # Per bank write bursts
system.physmem.perBankRdBursts::1               28763                       # Per bank write bursts
system.physmem.perBankRdBursts::2               27094                       # Per bank write bursts
system.physmem.perBankRdBursts::3               24985                       # Per bank write bursts
system.physmem.perBankRdBursts::4               26681                       # Per bank write bursts
system.physmem.perBankRdBursts::5               30728                       # Per bank write bursts
system.physmem.perBankRdBursts::6               26238                       # Per bank write bursts
system.physmem.perBankRdBursts::7               28208                       # Per bank write bursts
system.physmem.perBankRdBursts::8               24817                       # Per bank write bursts
system.physmem.perBankRdBursts::9               29447                       # Per bank write bursts
system.physmem.perBankRdBursts::10              28003                       # Per bank write bursts
system.physmem.perBankRdBursts::11              29718                       # Per bank write bursts
system.physmem.perBankRdBursts::12              26417                       # Per bank write bursts
system.physmem.perBankRdBursts::13              26875                       # Per bank write bursts
system.physmem.perBankRdBursts::14              23221                       # Per bank write bursts
system.physmem.perBankRdBursts::15              25849                       # Per bank write bursts
system.physmem.perBankWrBursts::0               29439                       # Per bank write bursts
system.physmem.perBankWrBursts::1               30169                       # Per bank write bursts
system.physmem.perBankWrBursts::2               29222                       # Per bank write bursts
system.physmem.perBankWrBursts::3               30308                       # Per bank write bursts
system.physmem.perBankWrBursts::4               30582                       # Per bank write bursts
system.physmem.perBankWrBursts::5               32929                       # Per bank write bursts
system.physmem.perBankWrBursts::6               29622                       # Per bank write bursts
system.physmem.perBankWrBursts::7               32397                       # Per bank write bursts
system.physmem.perBankWrBursts::8               29255                       # Per bank write bursts
system.physmem.perBankWrBursts::9               32999                       # Per bank write bursts
system.physmem.perBankWrBursts::10              30308                       # Per bank write bursts
system.physmem.perBankWrBursts::11              31541                       # Per bank write bursts
system.physmem.perBankWrBursts::12              29215                       # Per bank write bursts
system.physmem.perBankWrBursts::13              29346                       # Per bank write bursts
system.physmem.perBankWrBursts::14              27349                       # Per bank write bursts
system.physmem.perBankWrBursts::15              29094                       # Per bank write bursts
system.physmem.numRdRetry                           0                       # Number of times read queue was full causing retry
system.physmem.numWrRetry                          19                       # Number of times write queue was full causing retry
system.physmem.totGap                    51315275469000                       # Total gap between requests
system.physmem.readPktSize::0                       0                       # Read request sizes (log2)
system.physmem.readPktSize::1                       0                       # Read request sizes (log2)
system.physmem.readPktSize::2                       0                       # Read request sizes (log2)
system.physmem.readPktSize::3                       0                       # Read request sizes (log2)
system.physmem.readPktSize::4                       0                       # Read request sizes (log2)
system.physmem.readPktSize::5                       0                       # Read request sizes (log2)
system.physmem.readPktSize::6                  435200                       # Read request sizes (log2)
system.physmem.writePktSize::0                      0                       # Write request sizes (log2)
system.physmem.writePktSize::1                      0                       # Write request sizes (log2)
system.physmem.writePktSize::2                      0                       # Write request sizes (log2)
system.physmem.writePktSize::3                      0                       # Write request sizes (log2)
system.physmem.writePktSize::4                      0                       # Write request sizes (log2)
system.physmem.writePktSize::5                      0                       # Write request sizes (log2)
system.physmem.writePktSize::6                 483804                       # Write request sizes (log2)
system.physmem.rdQLenPdf::0                    339047                       # What read queue length does an incoming req see
system.physmem.rdQLenPdf::1                     67972                       # What read queue length does an incoming req see
system.physmem.rdQLenPdf::2                     19489                       # What read queue length does an incoming req see
system.physmem.rdQLenPdf::3                      8325                       # What read queue length does an incoming req see
system.physmem.rdQLenPdf::4                        61                       # What read queue length does an incoming req see
system.physmem.rdQLenPdf::5                        12                       # What read queue length does an incoming req see
system.physmem.rdQLenPdf::6                         5                       # What read queue length does an incoming req see
system.physmem.rdQLenPdf::7                         4                       # What read queue length does an incoming req see
system.physmem.rdQLenPdf::8                        12                       # What read queue length does an incoming req see
system.physmem.rdQLenPdf::9                         2                       # What read queue length does an incoming req see
system.physmem.rdQLenPdf::10                        2                       # What read queue length does an incoming req see
system.physmem.rdQLenPdf::11                        2                       # What read queue length does an incoming req see
system.physmem.rdQLenPdf::12                        2                       # What read queue length does an incoming req see
system.physmem.rdQLenPdf::13                        2                       # What read queue length does an incoming req see
system.physmem.rdQLenPdf::14                        2                       # What read queue length does an incoming req see
system.physmem.rdQLenPdf::15                        2                       # What read queue length does an incoming req see
system.physmem.rdQLenPdf::16                        2                       # What read queue length does an incoming req see
system.physmem.rdQLenPdf::17                        2                       # What read queue length does an incoming req see
system.physmem.rdQLenPdf::18                        3                       # What read queue length does an incoming req see
system.physmem.rdQLenPdf::19                        1                       # What read queue length does an incoming req see
system.physmem.rdQLenPdf::20                        0                       # What read queue length does an incoming req see
system.physmem.rdQLenPdf::21                        0                       # What read queue length does an incoming req see
system.physmem.rdQLenPdf::22                        0                       # What read queue length does an incoming req see
system.physmem.rdQLenPdf::23                        0                       # What read queue length does an incoming req see
system.physmem.rdQLenPdf::24                        0                       # What read queue length does an incoming req see
system.physmem.rdQLenPdf::25                        0                       # What read queue length does an incoming req see
system.physmem.rdQLenPdf::26                        0                       # What read queue length does an incoming req see
system.physmem.rdQLenPdf::27                        0                       # What read queue length does an incoming req see
system.physmem.rdQLenPdf::28                        0                       # What read queue length does an incoming req see
system.physmem.rdQLenPdf::29                        0                       # What read queue length does an incoming req see
system.physmem.rdQLenPdf::30                        0                       # What read queue length does an incoming req see
system.physmem.rdQLenPdf::31                        0                       # What read queue length does an incoming req see
system.physmem.wrQLenPdf::0                       581                       # What write queue length does an incoming req see
system.physmem.wrQLenPdf::1                       572                       # What write queue length does an incoming req see
system.physmem.wrQLenPdf::2                       571                       # What write queue length does an incoming req see
system.physmem.wrQLenPdf::3                       567                       # What write queue length does an incoming req see
system.physmem.wrQLenPdf::4                       560                       # What write queue length does an incoming req see
system.physmem.wrQLenPdf::5                       559                       # What write queue length does an incoming req see
system.physmem.wrQLenPdf::6                       559                       # What write queue length does an incoming req see
system.physmem.wrQLenPdf::7                       556                       # What write queue length does an incoming req see
system.physmem.wrQLenPdf::8                       556                       # What write queue length does an incoming req see
system.physmem.wrQLenPdf::9                       555                       # What write queue length does an incoming req see
system.physmem.wrQLenPdf::10                      554                       # What write queue length does an incoming req see
system.physmem.wrQLenPdf::11                      551                       # What write queue length does an incoming req see
system.physmem.wrQLenPdf::12                      549                       # What write queue length does an incoming req see
system.physmem.wrQLenPdf::13                      546                       # What write queue length does an incoming req see
system.physmem.wrQLenPdf::14                      544                       # What write queue length does an incoming req see
system.physmem.wrQLenPdf::15                    10688                       # What write queue length does an incoming req see
system.physmem.wrQLenPdf::16                    12645                       # What write queue length does an incoming req see
system.physmem.wrQLenPdf::17                    21314                       # What write queue length does an incoming req see
system.physmem.wrQLenPdf::18                    23642                       # What write queue length does an incoming req see
system.physmem.wrQLenPdf::19                    26112                       # What write queue length does an incoming req see
system.physmem.wrQLenPdf::20                    26953                       # What write queue length does an incoming req see
system.physmem.wrQLenPdf::21                    27836                       # What write queue length does an incoming req see
system.physmem.wrQLenPdf::22                    28305                       # What write queue length does an incoming req see
system.physmem.wrQLenPdf::23                    29478                       # What write queue length does an incoming req see
system.physmem.wrQLenPdf::24                    29464                       # What write queue length does an incoming req see
system.physmem.wrQLenPdf::25                    30830                       # What write queue length does an incoming req see
system.physmem.wrQLenPdf::26                    31587                       # What write queue length does an incoming req see
system.physmem.wrQLenPdf::27                    29857                       # What write queue length does an incoming req see
system.physmem.wrQLenPdf::28                    29451                       # What write queue length does an incoming req see
system.physmem.wrQLenPdf::29                    30076                       # What write queue length does an incoming req see
system.physmem.wrQLenPdf::30                    27393                       # What write queue length does an incoming req see
system.physmem.wrQLenPdf::31                    27014                       # What write queue length does an incoming req see
system.physmem.wrQLenPdf::32                    26345                       # What write queue length does an incoming req see
system.physmem.wrQLenPdf::33                      722                       # What write queue length does an incoming req see
system.physmem.wrQLenPdf::34                      584                       # What write queue length does an incoming req see
system.physmem.wrQLenPdf::35                      508                       # What write queue length does an incoming req see
system.physmem.wrQLenPdf::36                      402                       # What write queue length does an incoming req see
system.physmem.wrQLenPdf::37                      313                       # What write queue length does an incoming req see
system.physmem.wrQLenPdf::38                      249                       # What write queue length does an incoming req see
system.physmem.wrQLenPdf::39                      289                       # What write queue length does an incoming req see
system.physmem.wrQLenPdf::40                      212                       # What write queue length does an incoming req see
system.physmem.wrQLenPdf::41                      207                       # What write queue length does an incoming req see
system.physmem.wrQLenPdf::42                      218                       # What write queue length does an incoming req see
system.physmem.wrQLenPdf::43                      227                       # What write queue length does an incoming req see
system.physmem.wrQLenPdf::44                      203                       # What write queue length does an incoming req see
system.physmem.wrQLenPdf::45                      176                       # What write queue length does an incoming req see
system.physmem.wrQLenPdf::46                      187                       # What write queue length does an incoming req see
system.physmem.wrQLenPdf::47                      151                       # What write queue length does an incoming req see
system.physmem.wrQLenPdf::48                      184                       # What write queue length does an incoming req see
system.physmem.wrQLenPdf::49                      164                       # What write queue length does an incoming req see
system.physmem.wrQLenPdf::50                      145                       # What write queue length does an incoming req see
system.physmem.wrQLenPdf::51                      118                       # What write queue length does an incoming req see
system.physmem.wrQLenPdf::52                      110                       # What write queue length does an incoming req see
system.physmem.wrQLenPdf::53                      110                       # What write queue length does an incoming req see
system.physmem.wrQLenPdf::54                      133                       # What write queue length does an incoming req see
system.physmem.wrQLenPdf::55                      110                       # What write queue length does an incoming req see
system.physmem.wrQLenPdf::56                      128                       # What write queue length does an incoming req see
system.physmem.wrQLenPdf::57                      119                       # What write queue length does an incoming req see
system.physmem.wrQLenPdf::58                      111                       # What write queue length does an incoming req see
system.physmem.wrQLenPdf::59                       80                       # What write queue length does an incoming req see
system.physmem.wrQLenPdf::60                       97                       # What write queue length does an incoming req see
system.physmem.wrQLenPdf::61                       73                       # What write queue length does an incoming req see
system.physmem.wrQLenPdf::62                       45                       # What write queue length does an incoming req see
system.physmem.wrQLenPdf::63                       59                       # What write queue length does an incoming req see
system.physmem.bytesPerActivate::samples       275230                       # Bytes accessed per row activation
system.physmem.bytesPerActivate::mean      213.631363                       # Bytes accessed per row activation
system.physmem.bytesPerActivate::gmean     134.345796                       # Bytes accessed per row activation
system.physmem.bytesPerActivate::stdev     252.466079                       # Bytes accessed per row activation
system.physmem.bytesPerActivate::0-127         131747     47.87%     47.87% # Bytes accessed per row activation
system.physmem.bytesPerActivate::128-255        72284     26.26%     74.13% # Bytes accessed per row activation
system.physmem.bytesPerActivate::256-383        24873      9.04%     83.17% # Bytes accessed per row activation
system.physmem.bytesPerActivate::384-511        12745      4.63%     87.80% # Bytes accessed per row activation
system.physmem.bytesPerActivate::512-639         8355      3.04%     90.83% # Bytes accessed per row activation
system.physmem.bytesPerActivate::640-767         4904      1.78%     92.62% # Bytes accessed per row activation
system.physmem.bytesPerActivate::768-895         4003      1.45%     94.07% # Bytes accessed per row activation
system.physmem.bytesPerActivate::896-1023         2900      1.05%     95.12% # Bytes accessed per row activation
system.physmem.bytesPerActivate::1024-1151        13419      4.88%    100.00% # Bytes accessed per row activation
system.physmem.bytesPerActivate::total         275230                       # Bytes accessed per row activation
system.physmem.rdPerTurnAround::samples         25971                       # Reads before turning the bus around for writes
system.physmem.rdPerTurnAround::mean        16.744908                       # Reads before turning the bus around for writes
system.physmem.rdPerTurnAround::stdev       10.064212                       # Reads before turning the bus around for writes
system.physmem.rdPerTurnAround::0-7              4094     15.76%     15.76% # Reads before turning the bus around for writes
system.physmem.rdPerTurnAround::8-15             5177     19.93%     35.70% # Reads before turning the bus around for writes
system.physmem.rdPerTurnAround::16-23           12484     48.07%     83.77% # Reads before turning the bus around for writes
system.physmem.rdPerTurnAround::24-31            2573      9.91%     93.67% # Reads before turning the bus around for writes
system.physmem.rdPerTurnAround::32-39             911      3.51%     97.18% # Reads before turning the bus around for writes
system.physmem.rdPerTurnAround::40-47             410      1.58%     98.76% # Reads before turning the bus around for writes
system.physmem.rdPerTurnAround::48-55             151      0.58%     99.34% # Reads before turning the bus around for writes
system.physmem.rdPerTurnAround::56-63              87      0.33%     99.68% # Reads before turning the bus around for writes
system.physmem.rdPerTurnAround::64-71              41      0.16%     99.83% # Reads before turning the bus around for writes
system.physmem.rdPerTurnAround::72-79              17      0.07%     99.90% # Reads before turning the bus around for writes
system.physmem.rdPerTurnAround::80-87              14      0.05%     99.95% # Reads before turning the bus around for writes
system.physmem.rdPerTurnAround::88-95               7      0.03%     99.98% # Reads before turning the bus around for writes
system.physmem.rdPerTurnAround::96-103              1      0.00%     99.98% # Reads before turning the bus around for writes
system.physmem.rdPerTurnAround::136-143             2      0.01%     99.99% # Reads before turning the bus around for writes
system.physmem.rdPerTurnAround::144-151             1      0.00%    100.00% # Reads before turning the bus around for writes
system.physmem.rdPerTurnAround::208-215             1      0.00%    100.00% # Reads before turning the bus around for writes
system.physmem.rdPerTurnAround::total           25971                       # Reads before turning the bus around for writes
system.physmem.wrPerTurnAround::samples         25971                       # Writes before turning the bus around for reads
system.physmem.wrPerTurnAround::mean        18.627508                       # Writes before turning the bus around for reads
system.physmem.wrPerTurnAround::gmean       17.774611                       # Writes before turning the bus around for reads
system.physmem.wrPerTurnAround::stdev        9.820731                       # Writes before turning the bus around for reads
system.physmem.wrPerTurnAround::0-7                27      0.10%      0.10% # Writes before turning the bus around for reads
system.physmem.wrPerTurnAround::8-15               58      0.22%      0.33% # Writes before turning the bus around for reads
system.physmem.wrPerTurnAround::16-23           24184     93.12%     93.45% # Writes before turning the bus around for reads
system.physmem.wrPerTurnAround::24-31             657      2.53%     95.98% # Writes before turning the bus around for reads
system.physmem.wrPerTurnAround::32-39             512      1.97%     97.95% # Writes before turning the bus around for reads
system.physmem.wrPerTurnAround::40-47             109      0.42%     98.37% # Writes before turning the bus around for reads
system.physmem.wrPerTurnAround::48-55              61      0.23%     98.60% # Writes before turning the bus around for reads
system.physmem.wrPerTurnAround::56-63              50      0.19%     98.79% # Writes before turning the bus around for reads
system.physmem.wrPerTurnAround::64-71             187      0.72%     99.51% # Writes before turning the bus around for reads
system.physmem.wrPerTurnAround::72-79              29      0.11%     99.63% # Writes before turning the bus around for reads
system.physmem.wrPerTurnAround::80-87              13      0.05%     99.68% # Writes before turning the bus around for reads
system.physmem.wrPerTurnAround::88-95               6      0.02%     99.70% # Writes before turning the bus around for reads
system.physmem.wrPerTurnAround::96-103              4      0.02%     99.72% # Writes before turning the bus around for reads
system.physmem.wrPerTurnAround::104-111            13      0.05%     99.77% # Writes before turning the bus around for reads
system.physmem.wrPerTurnAround::112-119             7      0.03%     99.79% # Writes before turning the bus around for reads
system.physmem.wrPerTurnAround::120-127             7      0.03%     99.82% # Writes before turning the bus around for reads
system.physmem.wrPerTurnAround::128-135            17      0.07%     99.88% # Writes before turning the bus around for reads
system.physmem.wrPerTurnAround::136-143             7      0.03%     99.91% # Writes before turning the bus around for reads
system.physmem.wrPerTurnAround::144-151             5      0.02%     99.93% # Writes before turning the bus around for reads
system.physmem.wrPerTurnAround::160-167             4      0.02%     99.95% # Writes before turning the bus around for reads
system.physmem.wrPerTurnAround::168-175             1      0.00%     99.95% # Writes before turning the bus around for reads
system.physmem.wrPerTurnAround::176-183             1      0.00%     99.95% # Writes before turning the bus around for reads
system.physmem.wrPerTurnAround::184-191             1      0.00%     99.96% # Writes before turning the bus around for reads
system.physmem.wrPerTurnAround::208-215             2      0.01%     99.97% # Writes before turning the bus around for reads
system.physmem.wrPerTurnAround::224-231             1      0.00%     99.97% # Writes before turning the bus around for reads
system.physmem.wrPerTurnAround::232-239             1      0.00%     99.97% # Writes before turning the bus around for reads
system.physmem.wrPerTurnAround::240-247             1      0.00%     99.98% # Writes before turning the bus around for reads
system.physmem.wrPerTurnAround::248-255             1      0.00%     99.98% # Writes before turning the bus around for reads
system.physmem.wrPerTurnAround::256-263             3      0.01%     99.99% # Writes before turning the bus around for reads
system.physmem.wrPerTurnAround::272-279             1      0.00%    100.00% # Writes before turning the bus around for reads
system.physmem.wrPerTurnAround::312-319             1      0.00%    100.00% # Writes before turning the bus around for reads
system.physmem.wrPerTurnAround::total           25971                       # Writes before turning the bus around for reads
system.physmem.totQLat                     8284996307                       # Total ticks spent queuing
system.physmem.totMemAccLat               16440290057                       # Total ticks spent from burst creation until serviced by the DRAM
system.physmem.totBusLat                   2174745000                       # Total ticks spent in databus transfers
system.physmem.avgQLat                       19048.20                       # Average queueing delay per DRAM burst
system.physmem.avgBusLat                      5000.00                       # Average bus latency per DRAM burst
system.physmem.avgMemAccLat                  37798.20                       # Average memory access latency per DRAM burst
system.physmem.avgRdBW                           0.54                       # Average DRAM read bandwidth in MiByte/s
system.physmem.avgWrBW                           0.60                       # Average achieved write bandwidth in MiByte/s
system.physmem.avgRdBWSys                        0.54                       # Average system read bandwidth in MiByte/s
system.physmem.avgWrBWSys                        0.60                       # Average system write bandwidth in MiByte/s
system.physmem.peakBW                        12800.00                       # Theoretical peak bandwidth in MiByte/s
system.physmem.busUtil                           0.01                       # Data bus utilization in percentage
system.physmem.busUtilRead                       0.00                       # Data bus utilization in percentage for reads
system.physmem.busUtilWrite                      0.00                       # Data bus utilization in percentage for writes
system.physmem.avgRdQLen                         1.00                       # Average read queue length when enqueuing
system.physmem.avgWrQLen                         8.48                       # Average write queue length when enqueuing
system.physmem.readRowHits                     317706                       # Number of row buffer hits during reads
system.physmem.writeRowHits                    325786                       # Number of row buffer hits during writes
system.physmem.readRowHitRate                   73.04                       # Row buffer hit rate for reads
system.physmem.writeRowHitRate                  67.34                       # Row buffer hit rate for writes
system.physmem.avgGap                     55837923.96                       # Average gap between requests
system.physmem.pageHitRate                      70.04                       # Row buffer hit rate, read and write combined
system.physmem_0.actEnergy                 1063034280                       # Energy for activate commands per rank (pJ)
system.physmem_0.preEnergy                  578527125                       # Energy for precharge commands per rank (pJ)
system.physmem_0.readEnergy                1720625400                       # Energy for read commands per rank (pJ)
system.physmem_0.writeEnergy               1585448640                       # Energy for write commands per rank (pJ)
system.physmem_0.refreshEnergy           3313031919600                       # Energy for refresh commands per rank (pJ)
system.physmem_0.actBackEnergy           1176100438995                       # Energy for active background per rank (pJ)
system.physmem_0.preBackEnergy           29681595659250                       # Energy for precharge background per rank (pJ)
system.physmem_0.totalEnergy             34175675653290                       # Total energy per rank (pJ)
system.physmem_0.averagePower              667.640087                       # Core power per rank (mW)
system.physmem_0.memoryStateTime::IDLE   48913549174000                       # Time in different power states
system.physmem_0.memoryStateTime::REF    1693779100000                       # Time in different power states
system.physmem_0.memoryStateTime::PRE_PDN            0                       # Time in different power states
system.physmem_0.memoryStateTime::ACT    116961174250                       # Time in different power states
system.physmem_0.memoryStateTime::ACT_PDN            0                       # Time in different power states
system.physmem_1.actEnergy                 1017704520                       # Energy for activate commands per rank (pJ)
system.physmem_1.preEnergy                  553591500                       # Energy for precharge commands per rank (pJ)
system.physmem_1.readEnergy                1671906600                       # Energy for read commands per rank (pJ)
system.physmem_1.writeEnergy               1549413360                       # Energy for write commands per rank (pJ)
system.physmem_1.refreshEnergy           3313031919600                       # Energy for refresh commands per rank (pJ)
system.physmem_1.actBackEnergy           1173827506995                       # Energy for active background per rank (pJ)
system.physmem_1.preBackEnergy           29683698941250                       # Energy for precharge background per rank (pJ)
system.physmem_1.totalEnergy             34175350983825                       # Total energy per rank (pJ)
system.physmem_1.averagePower              667.631365                       # Core power per rank (mW)
system.physmem_1.memoryStateTime::IDLE   48916914851742                       # Time in different power states
system.physmem_1.memoryStateTime::REF    1693779100000                       # Time in different power states
system.physmem_1.memoryStateTime::PRE_PDN            0                       # Time in different power states
system.physmem_1.memoryStateTime::ACT    113597968758                       # Time in different power states
system.physmem_1.memoryStateTime::ACT_PDN            0                       # Time in different power states
system.realview.nvmem.pwrStateResidencyTicks::UNDEFINED 51316275690000                       # Cumulative time (in ticks) in various power states
system.realview.nvmem.bytes_read::cpu0.inst           96                       # Number of bytes read from this memory
system.realview.nvmem.bytes_read::cpu0.data           36                       # Number of bytes read from this memory
system.realview.nvmem.bytes_read::total           132                       # Number of bytes read from this memory
system.realview.nvmem.bytes_inst_read::cpu0.inst           96                       # Number of instructions bytes read from this memory
system.realview.nvmem.bytes_inst_read::total           96                       # Number of instructions bytes read from this memory
system.realview.nvmem.num_reads::cpu0.inst           24                       # Number of read requests responded to by this memory
system.realview.nvmem.num_reads::cpu0.data            5                       # Number of read requests responded to by this memory
system.realview.nvmem.num_reads::total             29                       # Number of read requests responded to by this memory
system.realview.nvmem.bw_read::cpu0.inst            2                       # Total read bandwidth from this memory (bytes/s)
system.realview.nvmem.bw_read::cpu0.data            1                       # Total read bandwidth from this memory (bytes/s)
system.realview.nvmem.bw_read::total                3                       # Total read bandwidth from this memory (bytes/s)
system.realview.nvmem.bw_inst_read::cpu0.inst            2                       # Instruction read bandwidth from this memory (bytes/s)
system.realview.nvmem.bw_inst_read::total            2                       # Instruction read bandwidth from this memory (bytes/s)
system.realview.nvmem.bw_total::cpu0.inst            2                       # Total bandwidth to/from this memory (bytes/s)
system.realview.nvmem.bw_total::cpu0.data            1                       # Total bandwidth to/from this memory (bytes/s)
system.realview.nvmem.bw_total::total               3                       # Total bandwidth to/from this memory (bytes/s)
system.realview.vram.pwrStateResidencyTicks::UNDEFINED 51316275690000                       # Cumulative time (in ticks) in various power states
system.pwrStateResidencyTicks::UNDEFINED 51316275690000                       # Cumulative time (in ticks) in various power states
system.bridge.pwrStateResidencyTicks::UNDEFINED 51316275690000                       # Cumulative time (in ticks) in various power states
system.cf0.dma_read_full_pages                    122                       # Number of full page size DMA reads (not PRD).
system.cf0.dma_read_bytes                      499712                       # Number of bytes transfered via DMA reads (not PRD).
system.cf0.dma_read_txs                           122                       # Number of DMA read transactions (not PRD).
system.cf0.dma_write_full_pages                  1666                       # Number of full page size DMA writes.
system.cf0.dma_write_bytes                    6826496                       # Number of bytes transfered via DMA writes.
system.cf0.dma_write_txs                         1669                       # Number of DMA write transactions.
system.cpu_clk_domain.clock                       500                       # Clock period in ticks
system.cpu0.dstage2_mmu.stage2_tlb.walker.pwrStateResidencyTicks::UNDEFINED 51316275690000                       # Cumulative time (in ticks) in various power states
system.cpu0.dstage2_mmu.stage2_tlb.walker.walks            0                       # Table walker walks requested
system.cpu0.dstage2_mmu.stage2_tlb.walker.walkRequestOrigin_Requested::Data            0                       # Table walker requests started/completed, data/inst
system.cpu0.dstage2_mmu.stage2_tlb.walker.walkRequestOrigin_Requested::Inst            0                       # Table walker requests started/completed, data/inst
system.cpu0.dstage2_mmu.stage2_tlb.walker.walkRequestOrigin_Requested::total            0                       # Table walker requests started/completed, data/inst
system.cpu0.dstage2_mmu.stage2_tlb.walker.walkRequestOrigin_Completed::Data            0                       # Table walker requests started/completed, data/inst
system.cpu0.dstage2_mmu.stage2_tlb.walker.walkRequestOrigin_Completed::Inst            0                       # Table walker requests started/completed, data/inst
system.cpu0.dstage2_mmu.stage2_tlb.walker.walkRequestOrigin_Completed::total            0                       # Table walker requests started/completed, data/inst
system.cpu0.dstage2_mmu.stage2_tlb.walker.walkRequestOrigin::total            0                       # Table walker requests started/completed, data/inst
system.cpu0.dstage2_mmu.stage2_tlb.inst_hits            0                       # ITB inst hits
system.cpu0.dstage2_mmu.stage2_tlb.inst_misses            0                       # ITB inst misses
system.cpu0.dstage2_mmu.stage2_tlb.read_hits            0                       # DTB read hits
system.cpu0.dstage2_mmu.stage2_tlb.read_misses            0                       # DTB read misses
system.cpu0.dstage2_mmu.stage2_tlb.write_hits            0                       # DTB write hits
system.cpu0.dstage2_mmu.stage2_tlb.write_misses            0                       # DTB write misses
system.cpu0.dstage2_mmu.stage2_tlb.flush_tlb            0                       # Number of times complete TLB was flushed
system.cpu0.dstage2_mmu.stage2_tlb.flush_tlb_mva            0                       # Number of times TLB was flushed by MVA
system.cpu0.dstage2_mmu.stage2_tlb.flush_tlb_mva_asid            0                       # Number of times TLB was flushed by MVA & ASID
system.cpu0.dstage2_mmu.stage2_tlb.flush_tlb_asid            0                       # Number of times TLB was flushed by ASID
system.cpu0.dstage2_mmu.stage2_tlb.flush_entries            0                       # Number of entries that have been flushed from TLB
system.cpu0.dstage2_mmu.stage2_tlb.align_faults            0                       # Number of TLB faults due to alignment restrictions
system.cpu0.dstage2_mmu.stage2_tlb.prefetch_faults            0                       # Number of TLB faults due to prefetch
system.cpu0.dstage2_mmu.stage2_tlb.domain_faults            0                       # Number of TLB faults due to domain restrictions
system.cpu0.dstage2_mmu.stage2_tlb.perms_faults            0                       # Number of TLB faults due to permissions restrictions
system.cpu0.dstage2_mmu.stage2_tlb.read_accesses            0                       # DTB read accesses
system.cpu0.dstage2_mmu.stage2_tlb.write_accesses            0                       # DTB write accesses
system.cpu0.dstage2_mmu.stage2_tlb.inst_accesses            0                       # ITB inst accesses
system.cpu0.dstage2_mmu.stage2_tlb.hits             0                       # DTB hits
system.cpu0.dstage2_mmu.stage2_tlb.misses            0                       # DTB misses
system.cpu0.dstage2_mmu.stage2_tlb.accesses            0                       # DTB accesses
system.cpu0.dtb.walker.pwrStateResidencyTicks::UNDEFINED 51316275690000                       # Cumulative time (in ticks) in various power states
system.cpu0.dtb.walker.walks                    90923                       # Table walker walks requested
system.cpu0.dtb.walker.walksLong                90923                       # Table walker walks initiated with long descriptors
system.cpu0.dtb.walker.walkWaitTime::samples        90923                       # Table walker wait (enqueue to first request) latency
system.cpu0.dtb.walker.walkWaitTime::0          90923    100.00%    100.00% # Table walker wait (enqueue to first request) latency
system.cpu0.dtb.walker.walkWaitTime::total        90923                       # Table walker wait (enqueue to first request) latency
system.cpu0.dtb.walker.walksPending::samples 396801198420                       # Table walker pending requests distribution
system.cpu0.dtb.walker.walksPending::mean     1.489265                       # Table walker pending requests distribution
system.cpu0.dtb.walker.walksPending::0   -194140819580    -48.93%    -48.93% # Table walker pending requests distribution
system.cpu0.dtb.walker.walksPending::1   590942018000    148.93%    100.00% # Table walker pending requests distribution
system.cpu0.dtb.walker.walksPending::total 396801198420                       # Table walker pending requests distribution
system.cpu0.dtb.walker.walkPageSizes::4K        66800     85.03%     85.03% # Table walker page sizes translated
system.cpu0.dtb.walker.walkPageSizes::2M        11762     14.97%    100.00% # Table walker page sizes translated
system.cpu0.dtb.walker.walkPageSizes::total        78562                       # Table walker page sizes translated
system.cpu0.dtb.walker.walkRequestOrigin_Requested::Data        90923                       # Table walker requests started/completed, data/inst
system.cpu0.dtb.walker.walkRequestOrigin_Requested::Inst            0                       # Table walker requests started/completed, data/inst
system.cpu0.dtb.walker.walkRequestOrigin_Requested::total        90923                       # Table walker requests started/completed, data/inst
system.cpu0.dtb.walker.walkRequestOrigin_Completed::Data        78562                       # Table walker requests started/completed, data/inst
system.cpu0.dtb.walker.walkRequestOrigin_Completed::Inst            0                       # Table walker requests started/completed, data/inst
system.cpu0.dtb.walker.walkRequestOrigin_Completed::total        78562                       # Table walker requests started/completed, data/inst
system.cpu0.dtb.walker.walkRequestOrigin::total       169485                       # Table walker requests started/completed, data/inst
system.cpu0.dtb.inst_hits                           0                       # ITB inst hits
system.cpu0.dtb.inst_misses                         0                       # ITB inst misses
system.cpu0.dtb.read_hits                    64271568                       # DTB read hits
system.cpu0.dtb.read_misses                     68949                       # DTB read misses
system.cpu0.dtb.write_hits                   58335276                       # DTB write hits
system.cpu0.dtb.write_misses                    21974                       # DTB write misses
system.cpu0.dtb.flush_tlb                        1189                       # Number of times complete TLB was flushed
system.cpu0.dtb.flush_tlb_mva                       0                       # Number of times TLB was flushed by MVA
system.cpu0.dtb.flush_tlb_mva_asid              16131                       # Number of times TLB was flushed by MVA & ASID
system.cpu0.dtb.flush_tlb_asid                    408                       # Number of times TLB was flushed by ASID
system.cpu0.dtb.flush_entries                   41721                       # Number of entries that have been flushed from TLB
system.cpu0.dtb.align_faults                        0                       # Number of TLB faults due to alignment restrictions
system.cpu0.dtb.prefetch_faults                  2805                       # Number of TLB faults due to prefetch
system.cpu0.dtb.domain_faults                       0                       # Number of TLB faults due to domain restrictions
system.cpu0.dtb.perms_faults                     7542                       # Number of TLB faults due to permissions restrictions
system.cpu0.dtb.read_accesses                64340517                       # DTB read accesses
system.cpu0.dtb.write_accesses               58357250                       # DTB write accesses
system.cpu0.dtb.inst_accesses                       0                       # ITB inst accesses
system.cpu0.dtb.hits                        122606844                       # DTB hits
system.cpu0.dtb.misses                          90923                       # DTB misses
system.cpu0.dtb.accesses                    122697767                       # DTB accesses
system.cpu0.istage2_mmu.stage2_tlb.walker.pwrStateResidencyTicks::UNDEFINED 51316275690000                       # Cumulative time (in ticks) in various power states
system.cpu0.istage2_mmu.stage2_tlb.walker.walks            0                       # Table walker walks requested
system.cpu0.istage2_mmu.stage2_tlb.walker.walkRequestOrigin_Requested::Data            0                       # Table walker requests started/completed, data/inst
system.cpu0.istage2_mmu.stage2_tlb.walker.walkRequestOrigin_Requested::Inst            0                       # Table walker requests started/completed, data/inst
system.cpu0.istage2_mmu.stage2_tlb.walker.walkRequestOrigin_Requested::total            0                       # Table walker requests started/completed, data/inst
system.cpu0.istage2_mmu.stage2_tlb.walker.walkRequestOrigin_Completed::Data            0                       # Table walker requests started/completed, data/inst
system.cpu0.istage2_mmu.stage2_tlb.walker.walkRequestOrigin_Completed::Inst            0                       # Table walker requests started/completed, data/inst
system.cpu0.istage2_mmu.stage2_tlb.walker.walkRequestOrigin_Completed::total            0                       # Table walker requests started/completed, data/inst
system.cpu0.istage2_mmu.stage2_tlb.walker.walkRequestOrigin::total            0                       # Table walker requests started/completed, data/inst
system.cpu0.istage2_mmu.stage2_tlb.inst_hits            0                       # ITB inst hits
system.cpu0.istage2_mmu.stage2_tlb.inst_misses            0                       # ITB inst misses
system.cpu0.istage2_mmu.stage2_tlb.read_hits            0                       # DTB read hits
system.cpu0.istage2_mmu.stage2_tlb.read_misses            0                       # DTB read misses
system.cpu0.istage2_mmu.stage2_tlb.write_hits            0                       # DTB write hits
system.cpu0.istage2_mmu.stage2_tlb.write_misses            0                       # DTB write misses
system.cpu0.istage2_mmu.stage2_tlb.flush_tlb            0                       # Number of times complete TLB was flushed
system.cpu0.istage2_mmu.stage2_tlb.flush_tlb_mva            0                       # Number of times TLB was flushed by MVA
system.cpu0.istage2_mmu.stage2_tlb.flush_tlb_mva_asid            0                       # Number of times TLB was flushed by MVA & ASID
system.cpu0.istage2_mmu.stage2_tlb.flush_tlb_asid            0                       # Number of times TLB was flushed by ASID
system.cpu0.istage2_mmu.stage2_tlb.flush_entries            0                       # Number of entries that have been flushed from TLB
system.cpu0.istage2_mmu.stage2_tlb.align_faults            0                       # Number of TLB faults due to alignment restrictions
system.cpu0.istage2_mmu.stage2_tlb.prefetch_faults            0                       # Number of TLB faults due to prefetch
system.cpu0.istage2_mmu.stage2_tlb.domain_faults            0                       # Number of TLB faults due to domain restrictions
system.cpu0.istage2_mmu.stage2_tlb.perms_faults            0                       # Number of TLB faults due to permissions restrictions
system.cpu0.istage2_mmu.stage2_tlb.read_accesses            0                       # DTB read accesses
system.cpu0.istage2_mmu.stage2_tlb.write_accesses            0                       # DTB write accesses
system.cpu0.istage2_mmu.stage2_tlb.inst_accesses            0                       # ITB inst accesses
system.cpu0.istage2_mmu.stage2_tlb.hits             0                       # DTB hits
system.cpu0.istage2_mmu.stage2_tlb.misses            0                       # DTB misses
system.cpu0.istage2_mmu.stage2_tlb.accesses            0                       # DTB accesses
system.cpu0.itb.walker.pwrStateResidencyTicks::UNDEFINED 51316275690000                       # Cumulative time (in ticks) in various power states
system.cpu0.itb.walker.walks                    54169                       # Table walker walks requested
system.cpu0.itb.walker.walksLong                54169                       # Table walker walks initiated with long descriptors
system.cpu0.itb.walker.walkWaitTime::samples        54169                       # Table walker wait (enqueue to first request) latency
system.cpu0.itb.walker.walkWaitTime::0          54169    100.00%    100.00% # Table walker wait (enqueue to first request) latency
system.cpu0.itb.walker.walkWaitTime::total        54169                       # Table walker wait (enqueue to first request) latency
system.cpu0.itb.walker.walksPending::samples 396801198420                       # Table walker pending requests distribution
system.cpu0.itb.walker.walksPending::mean     1.489353                       # Table walker pending requests distribution
system.cpu0.itb.walker.walksPending::0   -194175666580    -48.94%    -48.94% # Table walker pending requests distribution
system.cpu0.itb.walker.walksPending::1   590976865000    148.94%    100.00% # Table walker pending requests distribution
system.cpu0.itb.walker.walksPending::total 396801198420                       # Table walker pending requests distribution
system.cpu0.itb.walker.walkPageSizes::4K        47334     95.01%     95.01% # Table walker page sizes translated
system.cpu0.itb.walker.walkPageSizes::2M         2486      4.99%    100.00% # Table walker page sizes translated
system.cpu0.itb.walker.walkPageSizes::total        49820                       # Table walker page sizes translated
system.cpu0.itb.walker.walkRequestOrigin_Requested::Data            0                       # Table walker requests started/completed, data/inst
system.cpu0.itb.walker.walkRequestOrigin_Requested::Inst        54169                       # Table walker requests started/completed, data/inst
system.cpu0.itb.walker.walkRequestOrigin_Requested::total        54169                       # Table walker requests started/completed, data/inst
system.cpu0.itb.walker.walkRequestOrigin_Completed::Data            0                       # Table walker requests started/completed, data/inst
system.cpu0.itb.walker.walkRequestOrigin_Completed::Inst        49820                       # Table walker requests started/completed, data/inst
system.cpu0.itb.walker.walkRequestOrigin_Completed::total        49820                       # Table walker requests started/completed, data/inst
system.cpu0.itb.walker.walkRequestOrigin::total       103989                       # Table walker requests started/completed, data/inst
system.cpu0.itb.inst_hits                   341484641                       # ITB inst hits
system.cpu0.itb.inst_misses                     54169                       # ITB inst misses
system.cpu0.itb.read_hits                           0                       # DTB read hits
system.cpu0.itb.read_misses                         0                       # DTB read misses
system.cpu0.itb.write_hits                          0                       # DTB write hits
system.cpu0.itb.write_misses                        0                       # DTB write misses
system.cpu0.itb.flush_tlb                        1189                       # Number of times complete TLB was flushed
system.cpu0.itb.flush_tlb_mva                       0                       # Number of times TLB was flushed by MVA
system.cpu0.itb.flush_tlb_mva_asid              16131                       # Number of times TLB was flushed by MVA & ASID
system.cpu0.itb.flush_tlb_asid                    408                       # Number of times TLB was flushed by ASID
system.cpu0.itb.flush_entries                   29832                       # Number of entries that have been flushed from TLB
system.cpu0.itb.align_faults                        0                       # Number of TLB faults due to alignment restrictions
system.cpu0.itb.prefetch_faults                     0                       # Number of TLB faults due to prefetch
system.cpu0.itb.domain_faults                       0                       # Number of TLB faults due to domain restrictions
system.cpu0.itb.perms_faults                        0                       # Number of TLB faults due to permissions restrictions
system.cpu0.itb.read_accesses                       0                       # DTB read accesses
system.cpu0.itb.write_accesses                      0                       # DTB write accesses
system.cpu0.itb.inst_accesses               341538810                       # ITB inst accesses
system.cpu0.itb.hits                        341484641                       # DTB hits
system.cpu0.itb.misses                          54169                       # DTB misses
system.cpu0.itb.accesses                    341538810                       # DTB accesses
system.cpu0.numPwrStateTransitions              12198                       # Number of power state transitions
system.cpu0.pwrStateClkGateDist::samples         6099                       # Distribution of time spent in the clock gated state
system.cpu0.pwrStateClkGateDist::mean    8210231821.367437                       # Distribution of time spent in the clock gated state
system.cpu0.pwrStateClkGateDist::stdev   209893503926.618408                       # Distribution of time spent in the clock gated state
system.cpu0.pwrStateClkGateDist::underflows         2601     42.65%     42.65% # Distribution of time spent in the clock gated state
system.cpu0.pwrStateClkGateDist::1000-5e+10         3474     56.96%     99.61% # Distribution of time spent in the clock gated state
system.cpu0.pwrStateClkGateDist::5e+10-1e+11            5      0.08%     99.69% # Distribution of time spent in the clock gated state
system.cpu0.pwrStateClkGateDist::1e+11-1.5e+11            1      0.02%     99.70% # Distribution of time spent in the clock gated state
system.cpu0.pwrStateClkGateDist::1.5e+11-2e+11            4      0.07%     99.77% # Distribution of time spent in the clock gated state
system.cpu0.pwrStateClkGateDist::2e+11-2.5e+11            2      0.03%     99.80% # Distribution of time spent in the clock gated state
system.cpu0.pwrStateClkGateDist::4e+11-4.5e+11            1      0.02%     99.82% # Distribution of time spent in the clock gated state
system.cpu0.pwrStateClkGateDist::4.5e+11-5e+11            1      0.02%     99.84% # Distribution of time spent in the clock gated state
system.cpu0.pwrStateClkGateDist::8.5e+11-9e+11            1      0.02%     99.85% # Distribution of time spent in the clock gated state
system.cpu0.pwrStateClkGateDist::overflows            9      0.15%    100.00% # Distribution of time spent in the clock gated state
system.cpu0.pwrStateClkGateDist::min_value          501                       # Distribution of time spent in the clock gated state
system.cpu0.pwrStateClkGateDist::max_value 7947193321500                       # Distribution of time spent in the clock gated state
system.cpu0.pwrStateClkGateDist::total           6099                       # Distribution of time spent in the clock gated state
system.cpu0.pwrStateResidencyTicks::ON   1242071811480                       # Cumulative time (in ticks) in various power states
system.cpu0.pwrStateResidencyTicks::CLK_GATED 50074203878520                       # Cumulative time (in ticks) in various power states
system.cpu0.numCycles                       412415124                       # number of cpu cycles simulated
system.cpu0.numWorkItemsStarted                     0                       # number of work items this cpu started
system.cpu0.numWorkItemsCompleted                   0                       # number of work items this cpu completed
system.cpu0.kern.inst.arm                           0                       # number of arm instructions executed
system.cpu0.kern.inst.quiesce                   16566                       # number of quiesce instructions executed
system.cpu0.committedInsts                  341336485                       # Number of instructions committed
system.cpu0.committedOps                    401580232                       # Number of ops (including micro ops) committed
system.cpu0.num_int_alu_accesses            368861574                       # Number of integer alu accesses
system.cpu0.num_fp_alu_accesses                359512                       # Number of float alu accesses
system.cpu0.num_func_calls                   20525784                       # number of times a function call or return occured
system.cpu0.num_conditional_control_insts     51873404                       # number of instructions that are conditional controls
system.cpu0.num_int_insts                   368861574                       # number of integer instructions
system.cpu0.num_fp_insts                       359512                       # number of float instructions
system.cpu0.num_int_register_reads          539079221                       # number of times the integer registers were read
system.cpu0.num_int_register_writes         292860354                       # number of times the integer registers were written
system.cpu0.num_fp_register_reads              571011                       # number of times the floating registers were read
system.cpu0.num_fp_register_writes             323488                       # number of times the floating registers were written
system.cpu0.num_cc_register_reads            89499549                       # number of times the CC registers were read
system.cpu0.num_cc_register_writes           89284497                       # number of times the CC registers were written
system.cpu0.num_mem_refs                    122681510                       # number of memory refs
system.cpu0.num_load_insts                   64329809                       # Number of load instructions
system.cpu0.num_store_insts                  58351701                       # Number of store instructions
system.cpu0.num_idle_cycles              402393876.753300                       # Number of idle cycles
system.cpu0.num_busy_cycles              10021247.246700                       # Number of busy cycles
system.cpu0.not_idle_fraction                0.024299                       # Percentage of non-idle cycles
system.cpu0.idle_fraction                    0.975701                       # Percentage of idle cycles
system.cpu0.Branches                         76154036                       # Number of branches fetched
system.cpu0.op_class::No_OpClass                    0      0.00%      0.00% # Class of executed instruction
system.cpu0.op_class::IntAlu                278201506     69.24%     69.24% # Class of executed instruction
system.cpu0.op_class::IntMult                  848038      0.21%     69.45% # Class of executed instruction
system.cpu0.op_class::IntDiv                    41846      0.01%     69.46% # Class of executed instruction
system.cpu0.op_class::FloatAdd                      0      0.00%     69.46% # Class of executed instruction
system.cpu0.op_class::FloatCmp                      0      0.00%     69.46% # Class of executed instruction
system.cpu0.op_class::FloatCvt                      0      0.00%     69.46% # Class of executed instruction
system.cpu0.op_class::FloatMult                     0      0.00%     69.46% # Class of executed instruction
system.cpu0.op_class::FloatDiv                      0      0.00%     69.46% # Class of executed instruction
system.cpu0.op_class::FloatSqrt                     0      0.00%     69.46% # Class of executed instruction
system.cpu0.op_class::SimdAdd                       0      0.00%     69.46% # Class of executed instruction
system.cpu0.op_class::SimdAddAcc                    0      0.00%     69.46% # Class of executed instruction
system.cpu0.op_class::SimdAlu                       0      0.00%     69.46% # Class of executed instruction
system.cpu0.op_class::SimdCmp                       0      0.00%     69.46% # Class of executed instruction
system.cpu0.op_class::SimdCvt                       0      0.00%     69.46% # Class of executed instruction
system.cpu0.op_class::SimdMisc                      0      0.00%     69.46% # Class of executed instruction
system.cpu0.op_class::SimdMult                      0      0.00%     69.46% # Class of executed instruction
system.cpu0.op_class::SimdMultAcc                   0      0.00%     69.46% # Class of executed instruction
system.cpu0.op_class::SimdShift                     0      0.00%     69.46% # Class of executed instruction
system.cpu0.op_class::SimdShiftAcc                  0      0.00%     69.46% # Class of executed instruction
system.cpu0.op_class::SimdSqrt                      0      0.00%     69.46% # Class of executed instruction
system.cpu0.op_class::SimdFloatAdd                  0      0.00%     69.46% # Class of executed instruction
system.cpu0.op_class::SimdFloatAlu                  0      0.00%     69.46% # Class of executed instruction
system.cpu0.op_class::SimdFloatCmp                  0      0.00%     69.46% # Class of executed instruction
system.cpu0.op_class::SimdFloatCvt                  1      0.00%     69.46% # Class of executed instruction
system.cpu0.op_class::SimdFloatDiv                  0      0.00%     69.46% # Class of executed instruction
system.cpu0.op_class::SimdFloatMisc             48432      0.01%     69.47% # Class of executed instruction
system.cpu0.op_class::SimdFloatMult                 0      0.00%     69.47% # Class of executed instruction
system.cpu0.op_class::SimdFloatMultAcc              0      0.00%     69.47% # Class of executed instruction
system.cpu0.op_class::SimdFloatSqrt                 0      0.00%     69.47% # Class of executed instruction
system.cpu0.op_class::MemRead                64329809     16.01%     85.48% # Class of executed instruction
system.cpu0.op_class::MemWrite               58351701     14.52%    100.00% # Class of executed instruction
system.cpu0.op_class::IprAccess                     0      0.00%    100.00% # Class of executed instruction
system.cpu0.op_class::InstPrefetch                  0      0.00%    100.00% # Class of executed instruction
system.cpu0.op_class::total                 401821333                       # Class of executed instruction
system.cpu0.dcache.tags.pwrStateResidencyTicks::UNDEFINED 51316275690000                       # Cumulative time (in ticks) in various power states
system.cpu0.dcache.tags.replacements          9787095                       # number of replacements
system.cpu0.dcache.tags.tagsinuse          511.999716                       # Cycle average of tags in use
system.cpu0.dcache.tags.total_refs          296232659                       # Total number of references to valid blocks.
system.cpu0.dcache.tags.sampled_refs          9787607                       # Sample count of references to valid blocks.
system.cpu0.dcache.tags.avg_refs            30.266097                       # Average number of references to valid blocks.
system.cpu0.dcache.tags.warmup_cycle         33050500                       # Cycle when the warmup percentage was hit.
system.cpu0.dcache.tags.occ_blocks::cpu0.data   496.142011                       # Average occupied blocks per requestor
system.cpu0.dcache.tags.occ_blocks::cpu1.data     4.386995                       # Average occupied blocks per requestor
system.cpu0.dcache.tags.occ_blocks::cpu2.data     5.164772                       # Average occupied blocks per requestor
system.cpu0.dcache.tags.occ_blocks::cpu3.data     6.305937                       # Average occupied blocks per requestor
system.cpu0.dcache.tags.occ_percent::cpu0.data     0.969027                       # Average percentage of cache occupancy
system.cpu0.dcache.tags.occ_percent::cpu1.data     0.008568                       # Average percentage of cache occupancy
system.cpu0.dcache.tags.occ_percent::cpu2.data     0.010087                       # Average percentage of cache occupancy
system.cpu0.dcache.tags.occ_percent::cpu3.data     0.012316                       # Average percentage of cache occupancy
system.cpu0.dcache.tags.occ_percent::total     0.999999                       # Average percentage of cache occupancy
system.cpu0.dcache.tags.occ_task_id_blocks::1024          512                       # Occupied blocks per task id
system.cpu0.dcache.tags.age_task_id_blocks_1024::0          173                       # Occupied blocks per task id
system.cpu0.dcache.tags.age_task_id_blocks_1024::1          318                       # Occupied blocks per task id
system.cpu0.dcache.tags.age_task_id_blocks_1024::2           21                       # Occupied blocks per task id
system.cpu0.dcache.tags.occ_task_id_percent::1024            1                       # Percentage of cache occupancy per task id
system.cpu0.dcache.tags.tag_accesses       1255111411                       # Number of tag accesses
system.cpu0.dcache.tags.data_accesses      1255111411                       # Number of data accesses
system.cpu0.dcache.pwrStateResidencyTicks::UNDEFINED 51316275690000                       # Cumulative time (in ticks) in various power states
system.cpu0.dcache.ReadReq_hits::cpu0.data     60046999                       # number of ReadReq hits
system.cpu0.dcache.ReadReq_hits::cpu1.data     19454301                       # number of ReadReq hits
system.cpu0.dcache.ReadReq_hits::cpu2.data     26463320                       # number of ReadReq hits
system.cpu0.dcache.ReadReq_hits::cpu3.data     46623681                       # number of ReadReq hits
system.cpu0.dcache.ReadReq_hits::total      152588301                       # number of ReadReq hits
[...]
system.membus.pkt_size_system.iocache.mem_side::total      7366016                       # Cumulative packet size per connected master and slave (bytes)
system.membus.pkt_size::total               120762482                       # Cumulative packet size per connected master and slave (bytes)
system.membus.snoops                              546                       # Total snoops (count)
system.membus.snoopTraffic                      34880                       # Total snoop traffic (bytes)
system.membus.snoop_fanout::samples           2213347                       # Request fanout histogram
system.membus.snoop_fanout::mean             0.016167                       # Request fanout histogram
system.membus.snoop_fanout::stdev            0.126119                       # Request fanout histogram
system.membus.snoop_fanout::underflows              0      0.00%      0.00% # Request fanout histogram
system.membus.snoop_fanout::0                 2177563     98.38%     98.38% # Request fanout histogram
system.membus.snoop_fanout::1                   35784      1.62%    100.00% # Request fanout histogram
system.membus.snoop_fanout::2                       0      0.00%    100.00% # Request fanout histogram
system.membus.snoop_fanout::overflows               0      0.00%    100.00% # Request fanout histogram
system.membus.snoop_fanout::min_value               0                       # Request fanout histogram
system.membus.snoop_fanout::max_value               1                       # Request fanout histogram
system.membus.snoop_fanout::total             2213347                       # Request fanout histogram
system.membus.reqLayer0.occupancy            45757000                       # Layer occupancy (ticks)
system.membus.reqLayer0.utilization               0.0                       # Layer utilization (%)
system.membus.reqLayer2.occupancy             1572000                       # Layer occupancy (ticks)
system.membus.reqLayer2.utilization               0.0                       # Layer utilization (%)
system.membus.reqLayer5.occupancy          3230054159                       # Layer occupancy (ticks)
system.membus.reqLayer5.utilization               0.0                       # Layer utilization (%)
system.membus.respLayer2.occupancy         2350415750                       # Layer occupancy (ticks)
system.membus.respLayer2.utilization              0.0                       # Layer utilization (%)
system.membus.respLayer3.occupancy            2301227                       # Layer occupancy (ticks)
system.membus.respLayer3.utilization              0.0                       # Layer utilization (%)
system.membus.badaddr_responder.pwrStateResidencyTicks::UNDEFINED 51316275690000                       # Cumulative time (in ticks) in various power states
system.realview.aaci_fake.pwrStateResidencyTicks::UNDEFINED 51316275690000                       # Cumulative time (in ticks) in various power states
system.realview.pci_host.pwrStateResidencyTicks::UNDEFINED 51316275690000                       # Cumulative time (in ticks) in various power states
system.realview.cf_ctrl.pwrStateResidencyTicks::UNDEFINED 51316275690000                       # Cumulative time (in ticks) in various power states
system.realview.gic.pwrStateResidencyTicks::UNDEFINED 51316275690000                       # Cumulative time (in ticks) in various power states
system.realview.clcd.pwrStateResidencyTicks::UNDEFINED 51316275690000                       # Cumulative time (in ticks) in various power states
system.realview.realview_io.pwrStateResidencyTicks::UNDEFINED 51316275690000                       # Cumulative time (in ticks) in various power states
system.realview.dcc.osc_cpu.clock               16667                       # Clock period in ticks
system.realview.dcc.osc_ddr.clock               25000                       # Clock period in ticks
system.realview.dcc.osc_hsbm.clock              25000                       # Clock period in ticks
system.realview.dcc.osc_pxl.clock               42105                       # Clock period in ticks
system.realview.dcc.osc_smb.clock               20000                       # Clock period in ticks
system.realview.dcc.osc_sys.clock               16667                       # Clock period in ticks
system.realview.energy_ctrl.pwrStateResidencyTicks::UNDEFINED 51316275690000                       # Cumulative time (in ticks) in various power states
system.realview.ethernet.pwrStateResidencyTicks::UNDEFINED 51316275690000                       # Cumulative time (in ticks) in various power states
system.realview.ethernet.txBytes                  966                       # Bytes Transmitted
system.realview.ethernet.txPackets                  3                       # Number of Packets Transmitted
system.realview.ethernet.txIpChecksums              0                       # Number of tx IP Checksums done by device
system.realview.ethernet.txTcpChecksums             0                       # Number of tx TCP Checksums done by device
system.realview.ethernet.txUdpChecksums             0                       # Number of tx UDP Checksums done by device
system.realview.ethernet.descDMAReads               0                       # Number of descriptors the device read w/ DMA
system.realview.ethernet.descDMAWrites              0                       # Number of descriptors the device wrote w/ DMA
system.realview.ethernet.descDmaReadBytes            0                       # number of descriptor bytes read w/ DMA
system.realview.ethernet.descDmaWriteBytes            0                       # number of descriptor bytes write w/ DMA
system.realview.ethernet.totBandwidth             151                       # Total Bandwidth (bits/s)
system.realview.ethernet.totPackets                 3                       # Total Packets
system.realview.ethernet.totBytes                 966                       # Total Bytes
system.realview.ethernet.totPPS                     0                       # Total Tranmission Rate (packets/s)
system.realview.ethernet.txBandwidth              151                       # Transmit Bandwidth (bits/s)
system.realview.ethernet.txPPS                      0                       # Packet Tranmission Rate (packets/s)
system.realview.ethernet.postedSwi                  0                       # number of software interrupts posted to CPU
system.realview.ethernet.coalescedSwi               0                       # average number of Swi's coalesced into each post
system.realview.ethernet.totalSwi                   0                       # total number of Swi written to ISR
system.realview.ethernet.postedRxIdle               0                       # number of rxIdle interrupts posted to CPU
system.realview.ethernet.coalescedRxIdle            0                       # average number of RxIdle's coalesced into each post
system.realview.ethernet.totalRxIdle                0                       # total number of RxIdle written to ISR
system.realview.ethernet.postedRxOk                 0                       # number of RxOk interrupts posted to CPU
system.realview.ethernet.coalescedRxOk              0                       # average number of RxOk's coalesced into each post
system.realview.ethernet.totalRxOk                  0                       # total number of RxOk written to ISR
system.realview.ethernet.postedRxDesc               0                       # number of RxDesc interrupts posted to CPU
system.realview.ethernet.coalescedRxDesc            0                       # average number of RxDesc's coalesced into each post
system.realview.ethernet.totalRxDesc                0                       # total number of RxDesc written to ISR
system.realview.ethernet.postedTxOk                 0                       # number of TxOk interrupts posted to CPU
system.realview.ethernet.coalescedTxOk              0                       # average number of TxOk's coalesced into each post
system.realview.ethernet.totalTxOk                  0                       # total number of TxOk written to ISR
system.realview.ethernet.postedTxIdle               0                       # number of TxIdle interrupts posted to CPU
system.realview.ethernet.coalescedTxIdle            0                       # average number of TxIdle's coalesced into each post
system.realview.ethernet.totalTxIdle                0                       # total number of TxIdle written to ISR
system.realview.ethernet.postedTxDesc               0                       # number of TxDesc interrupts posted to CPU
system.realview.ethernet.coalescedTxDesc            0                       # average number of TxDesc's coalesced into each post
system.realview.ethernet.totalTxDesc                0                       # total number of TxDesc written to ISR
system.realview.ethernet.postedRxOrn                0                       # number of RxOrn posted to CPU
system.realview.ethernet.coalescedRxOrn             0                       # average number of RxOrn's coalesced into each post
system.realview.ethernet.totalRxOrn                 0                       # total number of RxOrn written to ISR
system.realview.ethernet.coalescedTotal             0                       # average number of interrupts coalesced into each post
system.realview.ethernet.postedInterrupts           18                       # number of posts to CPU
system.realview.ethernet.droppedPackets             0                       # number of packets dropped
system.realview.hdlcd.pwrStateResidencyTicks::UNDEFINED 51316275690000                       # Cumulative time (in ticks) in various power states
system.realview.ide.pwrStateResidencyTicks::UNDEFINED 51316275690000                       # Cumulative time (in ticks) in various power states
system.realview.kmi0.pwrStateResidencyTicks::UNDEFINED 51316275690000                       # Cumulative time (in ticks) in various power states
system.realview.kmi1.pwrStateResidencyTicks::UNDEFINED 51316275690000                       # Cumulative time (in ticks) in various power states
system.realview.l2x0_fake.pwrStateResidencyTicks::UNDEFINED 51316275690000                       # Cumulative time (in ticks) in various power states
system.realview.lan_fake.pwrStateResidencyTicks::UNDEFINED 51316275690000                       # Cumulative time (in ticks) in various power states
system.realview.local_cpu_timer.pwrStateResidencyTicks::UNDEFINED 51316275690000                       # Cumulative time (in ticks) in various power states
system.realview.mcc.osc_clcd.clock              42105                       # Clock period in ticks
system.realview.mcc.osc_mcc.clock               20000                       # Clock period in ticks
system.realview.mcc.osc_peripheral.clock        41667                       # Clock period in ticks
system.realview.mcc.osc_system_bus.clock        41667                       # Clock period in ticks
system.realview.mmc_fake.pwrStateResidencyTicks::UNDEFINED 51316275690000                       # Cumulative time (in ticks) in various power states
system.realview.rtc.pwrStateResidencyTicks::UNDEFINED 51316275690000                       # Cumulative time (in ticks) in various power states
system.realview.sp810_fake.pwrStateResidencyTicks::UNDEFINED 51316275690000                       # Cumulative time (in ticks) in various power states
system.realview.timer0.pwrStateResidencyTicks::UNDEFINED 51316275690000                       # Cumulative time (in ticks) in various power states
system.realview.timer1.pwrStateResidencyTicks::UNDEFINED 51316275690000                       # Cumulative time (in ticks) in various power states
system.realview.uart.pwrStateResidencyTicks::UNDEFINED 51316275690000                       # Cumulative time (in ticks) in various power states
system.realview.uart1_fake.pwrStateResidencyTicks::UNDEFINED 51316275690000                       # Cumulative time (in ticks) in various power states
system.realview.uart2_fake.pwrStateResidencyTicks::UNDEFINED 51316275690000                       # Cumulative time (in ticks) in various power states
system.realview.uart3_fake.pwrStateResidencyTicks::UNDEFINED 51316275690000                       # Cumulative time (in ticks) in various power states
system.realview.usb_fake.pwrStateResidencyTicks::UNDEFINED 51316275690000                       # Cumulative time (in ticks) in various power states
system.realview.vgic.pwrStateResidencyTicks::UNDEFINED 51316275690000                       # Cumulative time (in ticks) in various power states
system.realview.watchdog_fake.pwrStateResidencyTicks::UNDEFINED 51316275690000                       # Cumulative time (in ticks) in various power states
system.toL2Bus.snoop_filter.tot_requests     52031861                       # Total number of requests made to the snoop filter.
system.toL2Bus.snoop_filter.hit_single_requests     26343539                       # Number of requests hitting in the snoop filter with a single holder of the requested data.
system.toL2Bus.snoop_filter.hit_multi_requests         3136                       # Number of requests hitting in the snoop filter with multiple (>1) holders of the requested data.
system.toL2Bus.snoop_filter.tot_snoops           2272                       # Total number of snoops made to the snoop filter.
system.toL2Bus.snoop_filter.hit_single_snoops         2272                       # Number of snoops hitting in the snoop filter with a single holder of the requested data.
system.toL2Bus.snoop_filter.hit_multi_snoops            0                       # Number of snoops hitting in the snoop filter with multiple (>1) holders of the requested data.
system.toL2Bus.pwrStateResidencyTicks::UNDEFINED 51316275690000                       # Cumulative time (in ticks) in various power states
system.toL2Bus.trans_dist::ReadReq            1497693                       # Transaction distribution
system.toL2Bus.trans_dist::ReadResp          23955179                       # Transaction distribution
system.toL2Bus.trans_dist::WriteReq             33648                       # Transaction distribution
system.toL2Bus.trans_dist::WriteResp            33648                       # Transaction distribution
system.toL2Bus.trans_dist::WritebackDirty      8020839                       # Transaction distribution
system.toL2Bus.trans_dist::WritebackClean     15900080                       # Transaction distribution
system.toL2Bus.trans_dist::CleanEvict         2311396                       # Transaction distribution
system.toL2Bus.trans_dist::UpgradeReq           28791                       # Transaction distribution
system.toL2Bus.trans_dist::SCUpgradeReq             7                       # Transaction distribution
system.toL2Bus.trans_dist::UpgradeResp          28798                       # Transaction distribution
system.toL2Bus.trans_dist::ReadExReq          2005082                       # Transaction distribution
system.toL2Bus.trans_dist::ReadExResp         2005082                       # Transaction distribution
system.toL2Bus.trans_dist::ReadCleanReq      15900700                       # Transaction distribution
system.toL2Bus.trans_dist::ReadSharedReq      6556911                       # Transaction distribution
system.toL2Bus.trans_dist::InvalidateReq      1231319                       # Transaction distribution
system.toL2Bus.trans_dist::InvalidateResp      1226027                       # Transaction distribution
system.toL2Bus.pkt_count_system.cpu0.icache.mem_side::system.l2c.cpu_side     47787527                       # Packet count per connected master and slave (bytes)
system.toL2Bus.pkt_count_system.cpu0.dcache.mem_side::system.l2c.cpu_side     29554737                       # Packet count per connected master and slave (bytes)
system.toL2Bus.pkt_count_system.cpu0.itb.walker.dma::system.l2c.cpu_side       797902                       # Packet count per connected master and slave (bytes)
system.toL2Bus.pkt_count_system.cpu0.dtb.walker.dma::system.l2c.cpu_side      1720271                       # Packet count per connected master and slave (bytes)
system.toL2Bus.pkt_count::total              79860437                       # Packet count per connected master and slave (bytes)
system.toL2Bus.pkt_size_system.cpu0.icache.mem_side::system.l2c.cpu_side   2035409428                       # Cumulative packet size per connected master and slave (bytes)
system.toL2Bus.pkt_size_system.cpu0.dcache.mem_side::system.l2c.cpu_side   1033316830                       # Cumulative packet size per connected master and slave (bytes)
system.toL2Bus.pkt_size_system.cpu0.itb.walker.dma::system.l2c.cpu_side      2813832                       # Cumulative packet size per connected master and slave (bytes)
system.toL2Bus.pkt_size_system.cpu0.dtb.walker.dma::system.l2c.cpu_side      5963920                       # Cumulative packet size per connected master and slave (bytes)
system.toL2Bus.pkt_size::total             3077504010                       # Cumulative packet size per connected master and slave (bytes)
system.toL2Bus.snoops                         1542362                       # Total snoops (count)
system.toL2Bus.snoopTraffic                  65849016                       # Total snoop traffic (bytes)
system.toL2Bus.snoop_fanout::samples         38107926                       # Request fanout histogram
system.toL2Bus.snoop_fanout::mean            0.016628                       # Request fanout histogram
system.toL2Bus.snoop_fanout::stdev           0.127874                       # Request fanout histogram
system.toL2Bus.snoop_fanout::underflows             0      0.00%      0.00% # Request fanout histogram
system.toL2Bus.snoop_fanout::0               37474258     98.34%     98.34% # Request fanout histogram
system.toL2Bus.snoop_fanout::1                 633668      1.66%    100.00% # Request fanout histogram
system.toL2Bus.snoop_fanout::2                      0      0.00%    100.00% # Request fanout histogram
system.toL2Bus.snoop_fanout::overflows              0      0.00%    100.00% # Request fanout histogram
system.toL2Bus.snoop_fanout::min_value              0                       # Request fanout histogram
system.toL2Bus.snoop_fanout::max_value              1                       # Request fanout histogram
system.toL2Bus.snoop_fanout::total           38107926                       # Request fanout histogram
system.toL2Bus.reqLayer0.occupancy        31293825988                       # Layer occupancy (ticks)
system.toL2Bus.reqLayer0.utilization              0.1                       # Layer utilization (%)
system.toL2Bus.snoopLayer0.occupancy           519265                       # Layer occupancy (ticks)
system.toL2Bus.snoopLayer0.utilization            0.0                       # Layer utilization (%)
system.toL2Bus.respLayer0.occupancy       15589080685                       # Layer occupancy (ticks)
system.toL2Bus.respLayer0.utilization             0.0                       # Layer utilization (%)
system.toL2Bus.respLayer1.occupancy        7944642139                       # Layer occupancy (ticks)
system.toL2Bus.respLayer1.utilization             0.0                       # Layer utilization (%)
system.toL2Bus.respLayer2.occupancy         286385229                       # Layer occupancy (ticks)
system.toL2Bus.respLayer2.utilization             0.0                       # Layer utilization (%)
system.toL2Bus.respLayer3.occupancy         714971913                       # Layer occupancy (ticks)
system.toL2Bus.respLayer3.utilization             0.0                       # Layer utilization (%)
system.cpu3.kern.inst.arm                           0                       # number of arm instructions executed
system.cpu3.kern.inst.quiesce                       0                       # number of quiesce instructions executed

---------- End Simulation Statistics   ----------
