
---------- Begin Simulation Statistics ----------
sim_seconds                                  2.903641                       # Number of seconds simulated
sim_ticks                                2903640922500                       # Number of ticks simulated
final_tick                               2903640922500                       # Number of ticks from beginning of simulation (restored from checkpoints and never reset)
sim_freq                                 1000000000000                       # Frequency of simulated ticks
host_inst_rate                                 541770                       # Simulator instruction rate (inst/s)
host_op_rate                                   653210                       # Simulator op (including micro ops) rate (op/s)
host_tick_rate                            13988619879                       # Simulator tick rate (ticks/s)
host_mem_usage                                 561968                       # Number of bytes of host memory used
host_seconds                                   207.57                       # Real time elapsed on the host
sim_insts                                   112456119                       # Number of instructions simulated
sim_ops                                     135587804                       # Number of ops (including micro ops) simulated
system.voltage_domain.voltage                       1                       # Voltage in Volts
system.clk_domain.clock                          1000                       # Clock period in ticks
system.physmem.bytes_read::cpu0.dtb.walker          192                       # Number of bytes read from this memory
system.physmem.bytes_read::cpu0.itb.walker          128                       # Number of bytes read from this memory
system.physmem.bytes_read::cpu0.inst           582564                       # Number of bytes read from this memory
system.physmem.bytes_read::cpu0.data          3808480                       # Number of bytes read from this memory
system.physmem.bytes_read::cpu1.dtb.walker          256                       # Number of bytes read from this memory
system.physmem.bytes_read::cpu1.inst           602944                       # Number of bytes read from this memory
system.physmem.bytes_read::cpu1.data          5025476                       # Number of bytes read from this memory
system.physmem.bytes_read::realview.ide           960                       # Number of bytes read from this memory
system.physmem.bytes_read::total             10021000                       # Number of bytes read from this memory
system.physmem.bytes_inst_read::cpu0.inst       582564                       # Number of instructions bytes read from this memory
system.physmem.bytes_inst_read::cpu1.inst       602944                       # Number of instructions bytes read from this memory
system.physmem.bytes_inst_read::total         1185508                       # Number of instructions bytes read from this memory
system.physmem.bytes_written::writebacks      7434688                       # Number of bytes written to this memory
system.physmem.bytes_written::cpu0.data         17516                       # Number of bytes written to this memory
system.physmem.bytes_written::cpu1.data             8                       # Number of bytes written to this memory
system.physmem.bytes_written::total           7452212                       # Number of bytes written to this memory
system.physmem.num_reads::cpu0.dtb.walker            3                       # Number of read requests responded to by this memory
system.physmem.num_reads::cpu0.itb.walker            2                       # Number of read requests responded to by this memory
system.physmem.num_reads::cpu0.inst             17556                       # Number of read requests responded to by this memory
system.physmem.num_reads::cpu0.data             60026                       # Number of read requests responded to by this memory
system.physmem.num_reads::cpu1.dtb.walker            4                       # Number of read requests responded to by this memory
system.physmem.num_reads::cpu1.inst              9421                       # Number of read requests responded to by this memory
system.physmem.num_reads::cpu1.data             78524                       # Number of read requests responded to by this memory
system.physmem.num_reads::realview.ide             15                       # Number of read requests responded to by this memory
system.physmem.num_reads::total                165551                       # Number of read requests responded to by this memory
system.physmem.num_writes::writebacks          116167                       # Number of write requests responded to by this memory
system.physmem.num_writes::cpu0.data             4379                       # Number of write requests responded to by this memory
system.physmem.num_writes::cpu1.data                2                       # Number of write requests responded to by this memory
system.physmem.num_writes::total               120548                       # Number of write requests responded to by this memory
system.physmem.bw_read::cpu0.dtb.walker            66                       # Total read bandwidth from this memory (bytes/s)
system.physmem.bw_read::cpu0.itb.walker            44                       # Total read bandwidth from this memory (bytes/s)
system.physmem.bw_read::cpu0.inst              200632                       # Total read bandwidth from this memory (bytes/s)
system.physmem.bw_read::cpu0.data             1311622                       # Total read bandwidth from this memory (bytes/s)
system.physmem.bw_read::cpu1.dtb.walker            88                       # Total read bandwidth from this memory (bytes/s)
system.physmem.bw_read::cpu1.inst              207651                       # Total read bandwidth from this memory (bytes/s)
system.physmem.bw_read::cpu1.data             1730750                       # Total read bandwidth from this memory (bytes/s)
system.physmem.bw_read::realview.ide              331                       # Total read bandwidth from this memory (bytes/s)
system.physmem.bw_read::total                 3451184                       # Total read bandwidth from this memory (bytes/s)
system.physmem.bw_inst_read::cpu0.inst         200632                       # Instruction read bandwidth from this memory (bytes/s)
system.physmem.bw_inst_read::cpu1.inst         207651                       # Instruction read bandwidth from this memory (bytes/s)
system.physmem.bw_inst_read::total             408283                       # Instruction read bandwidth from this memory (bytes/s)
system.physmem.bw_write::writebacks           2560471                       # Write bandwidth from this memory (bytes/s)
system.physmem.bw_write::cpu0.data               6032                       # Write bandwidth from this memory (bytes/s)
system.physmem.bw_write::cpu1.data                  3                       # Write bandwidth from this memory (bytes/s)
system.physmem.bw_write::total                2566506                       # Write bandwidth from this memory (bytes/s)
system.physmem.bw_total::writebacks           2560471                       # Total bandwidth to/from this memory (bytes/s)
system.physmem.bw_total::cpu0.dtb.walker           66                       # Total bandwidth to/from this memory (bytes/s)
system.physmem.bw_total::cpu0.itb.walker           44                       # Total bandwidth to/from this memory (bytes/s)
system.physmem.bw_total::cpu0.inst             200632                       # Total bandwidth to/from this memory (bytes/s)
system.physmem.bw_total::cpu0.data            1317655                       # Total bandwidth to/from this memory (bytes/s)
system.physmem.bw_total::cpu1.dtb.walker           88                       # Total bandwidth to/from this memory (bytes/s)
system.physmem.bw_total::cpu1.inst             207651                       # Total bandwidth to/from this memory (bytes/s)
system.physmem.bw_total::cpu1.data            1730753                       # Total bandwidth to/from this memory (bytes/s)
system.physmem.bw_total::realview.ide             331                       # Total bandwidth to/from this memory (bytes/s)
system.physmem.bw_total::total                6017690                       # Total bandwidth to/from this memory (bytes/s)
system.physmem.readReqs                        165551                       # Number of read requests accepted
system.physmem.writeReqs                       156772                       # Number of write requests accepted
system.physmem.readBursts                      165551                       # Number of DRAM read bursts, including those serviced by the write queue
system.physmem.writeBursts                     156772                       # Number of DRAM write bursts, including those merged in the write queue
system.physmem.bytesReadDRAM                 10588736                       # Total number of bytes read from DRAM
system.physmem.bytesReadWrQ                      6528                       # Total number of bytes read from write queue
system.physmem.bytesWritten                   8522624                       # Total number of bytes written to DRAM
system.physmem.bytesReadSys                  10021000                       # Total read bytes from the system interface side
system.physmem.bytesWrittenSys                9770548                       # Total written bytes from the system interface side
system.physmem.servicedByWrQ                      102                       # Number of DRAM read bursts serviced by the write queue
system.physmem.mergedWrBursts                   23601                       # Number of DRAM write bursts merged with an existing one
system.physmem.neitherReadNorWriteReqs           4489                       # Number of requests that are neither read nor write
system.physmem.perBankRdBursts::0                9899                       # Per bank write bursts
system.physmem.perBankRdBursts::1                9526                       # Per bank write bursts
system.physmem.perBankRdBursts::2                9759                       # Per bank write bursts
system.physmem.perBankRdBursts::3                9793                       # Per bank write bursts
system.physmem.perBankRdBursts::4               18999                       # Per bank write bursts
system.physmem.perBankRdBursts::5               10033                       # Per bank write bursts
system.physmem.perBankRdBursts::6               10462                       # Per bank write bursts
system.physmem.perBankRdBursts::7               10803                       # Per bank write bursts
system.physmem.perBankRdBursts::8                9925                       # Per bank write bursts
system.physmem.perBankRdBursts::9               10243                       # Per bank write bursts
system.physmem.perBankRdBursts::10               9858                       # Per bank write bursts
system.physmem.perBankRdBursts::11               9250                       # Per bank write bursts
system.physmem.perBankRdBursts::12               9247                       # Per bank write bursts
system.physmem.perBankRdBursts::13               9475                       # Per bank write bursts
system.physmem.perBankRdBursts::14               9028                       # Per bank write bursts
system.physmem.perBankRdBursts::15               9149                       # Per bank write bursts
system.physmem.perBankWrBursts::0                8258                       # Per bank write bursts
system.physmem.perBankWrBursts::1                8244                       # Per bank write bursts
system.physmem.perBankWrBursts::2                8572                       # Per bank write bursts
system.physmem.perBankWrBursts::3                8149                       # Per bank write bursts
system.physmem.perBankWrBursts::4                8563                       # Per bank write bursts
system.physmem.perBankWrBursts::5                8536                       # Per bank write bursts
system.physmem.perBankWrBursts::6                8718                       # Per bank write bursts
system.physmem.perBankWrBursts::7                9117                       # Per bank write bursts
system.physmem.perBankWrBursts::8                8657                       # Per bank write bursts
system.physmem.perBankWrBursts::9                8771                       # Per bank write bursts
system.physmem.perBankWrBursts::10               8610                       # Per bank write bursts
system.physmem.perBankWrBursts::11               7990                       # Per bank write bursts
system.physmem.perBankWrBursts::12               7949                       # Per bank write bursts
system.physmem.perBankWrBursts::13               7964                       # Per bank write bursts
system.physmem.perBankWrBursts::14               7531                       # Per bank write bursts
system.physmem.perBankWrBursts::15               7537                       # Per bank write bursts
system.physmem.numRdRetry                           0                       # Number of times read queue was full causing retry
system.physmem.numWrRetry                          32                       # Number of times write queue was full causing retry
system.physmem.totGap                    2903640597500                       # Total gap between requests
system.physmem.readPktSize::0                       0                       # Read request sizes (log2)
system.physmem.readPktSize::1                       0                       # Read request sizes (log2)
system.physmem.readPktSize::2                    9558                       # Read request sizes (log2)
system.physmem.readPktSize::3                      14                       # Read request sizes (log2)
system.physmem.readPktSize::4                       0                       # Read request sizes (log2)
system.physmem.readPktSize::5                       0                       # Read request sizes (log2)
system.physmem.readPktSize::6                  155979                       # Read request sizes (log2)
system.physmem.writePktSize::0                      0                       # Write request sizes (log2)
system.physmem.writePktSize::1                      0                       # Write request sizes (log2)
system.physmem.writePktSize::2                   4381                       # Write request sizes (log2)
system.physmem.writePktSize::3                      0                       # Write request sizes (log2)
system.physmem.writePktSize::4                      0                       # Write request sizes (log2)
system.physmem.writePktSize::5                      0                       # Write request sizes (log2)
system.physmem.writePktSize::6                 152391                       # Write request sizes (log2)
system.physmem.rdQLenPdf::0                    164623                       # What read queue length does an incoming req see
system.physmem.rdQLenPdf::1                       542                       # What read queue length does an incoming req see
system.physmem.rdQLenPdf::2                       272                       # What read queue length does an incoming req see
system.physmem.rdQLenPdf::3                         1                       # What read queue length does an incoming req see
system.physmem.rdQLenPdf::4                         1                       # What read queue length does an incoming req see
system.physmem.rdQLenPdf::5                         1                       # What read queue length does an incoming req see
system.physmem.rdQLenPdf::6                         1                       # What read queue length does an incoming req see
system.physmem.rdQLenPdf::7                         1                       # What read queue length does an incoming req see
system.physmem.rdQLenPdf::8                         1                       # What read queue length does an incoming req see
system.physmem.rdQLenPdf::9                         1                       # What read queue length does an incoming req see
system.physmem.rdQLenPdf::10                        1                       # What read queue length does an incoming req see
system.physmem.rdQLenPdf::11                        1                       # What read queue length does an incoming req see
system.physmem.rdQLenPdf::12                        1                       # What read queue length does an incoming req see
system.physmem.rdQLenPdf::13                        1                       # What read queue length does an incoming req see
system.physmem.rdQLenPdf::14                        1                       # What read queue length does an incoming req see
system.physmem.rdQLenPdf::15                        0                       # What read queue length does an incoming req see
system.physmem.rdQLenPdf::16                        0                       # What read queue length does an incoming req see
system.physmem.rdQLenPdf::17                        0                       # What read queue length does an incoming req see
system.physmem.rdQLenPdf::18                        0                       # What read queue length does an incoming req see
system.physmem.rdQLenPdf::19                        0                       # What read queue length does an incoming req see
system.physmem.rdQLenPdf::20                        0                       # What read queue length does an incoming req see
system.physmem.rdQLenPdf::21                        0                       # What read queue length does an incoming req see
system.physmem.rdQLenPdf::22                        0                       # What read queue length does an incoming req see
system.physmem.rdQLenPdf::23                        0                       # What read queue length does an incoming req see
system.physmem.rdQLenPdf::24                        0                       # What read queue length does an incoming req see
system.physmem.rdQLenPdf::25                        0                       # What read queue length does an incoming req see
system.physmem.rdQLenPdf::26                        0                       # What read queue length does an incoming req see
system.physmem.rdQLenPdf::27                        0                       # What read queue length does an incoming req see
system.physmem.rdQLenPdf::28                        0                       # What read queue length does an incoming req see
system.physmem.rdQLenPdf::29                        0                       # What read queue length does an incoming req see
system.physmem.rdQLenPdf::30                        0                       # What read queue length does an incoming req see
system.physmem.rdQLenPdf::31                        0                       # What read queue length does an incoming req see
system.physmem.wrQLenPdf::0                       190                       # What write queue length does an incoming req see
system.physmem.wrQLenPdf::1                       187                       # What write queue length does an incoming req see
system.physmem.wrQLenPdf::2                       183                       # What write queue length does an incoming req see
system.physmem.wrQLenPdf::3                       180                       # What write queue length does an incoming req see
system.physmem.wrQLenPdf::4                       178                       # What write queue length does an incoming req see
system.physmem.wrQLenPdf::5                       177                       # What write queue length does an incoming req see
system.physmem.wrQLenPdf::6                       177                       # What write queue length does an incoming req see
system.physmem.wrQLenPdf::7                       172                       # What write queue length does an incoming req see
system.physmem.wrQLenPdf::8                       170                       # What write queue length does an incoming req see
system.physmem.wrQLenPdf::9                       166                       # What write queue length does an incoming req see
system.physmem.wrQLenPdf::10                      165                       # What write queue length does an incoming req see
system.physmem.wrQLenPdf::11                      163                       # What write queue length does an incoming req see
system.physmem.wrQLenPdf::12                      163                       # What write queue length does an incoming req see
system.physmem.wrQLenPdf::13                      160                       # What write queue length does an incoming req see
system.physmem.wrQLenPdf::14                      157                       # What write queue length does an incoming req see
system.physmem.wrQLenPdf::15                     1636                       # What write queue length does an incoming req see
system.physmem.wrQLenPdf::16                     1852                       # What write queue length does an incoming req see
system.physmem.wrQLenPdf::17                     5181                       # What write queue length does an incoming req see
system.physmem.wrQLenPdf::18                     5271                       # What write queue length does an incoming req see
system.physmem.wrQLenPdf::19                     5453                       # What write queue length does an incoming req see
system.physmem.wrQLenPdf::20                     5489                       # What write queue length does an incoming req see
system.physmem.wrQLenPdf::21                     5477                       # What write queue length does an incoming req see
system.physmem.wrQLenPdf::22                     5778                       # What write queue length does an incoming req see
system.physmem.wrQLenPdf::23                     6926                       # What write queue length does an incoming req see
system.physmem.wrQLenPdf::24                     5746                       # What write queue length does an incoming req see
system.physmem.wrQLenPdf::25                     6108                       # What write queue length does an incoming req see
system.physmem.wrQLenPdf::26                     7269                       # What write queue length does an incoming req see
system.physmem.wrQLenPdf::27                     6043                       # What write queue length does an incoming req see
system.physmem.wrQLenPdf::28                     6071                       # What write queue length does an incoming req see
system.physmem.wrQLenPdf::29                     7760                       # What write queue length does an incoming req see
system.physmem.wrQLenPdf::30                     6386                       # What write queue length does an incoming req see
system.physmem.wrQLenPdf::31                     5989                       # What write queue length does an incoming req see
system.physmem.wrQLenPdf::32                     6226                       # What write queue length does an incoming req see
system.physmem.wrQLenPdf::33                     1272                       # What write queue length does an incoming req see
system.physmem.wrQLenPdf::34                     1233                       # What write queue length does an incoming req see
system.physmem.wrQLenPdf::35                     1286                       # What write queue length does an incoming req see
system.physmem.wrQLenPdf::36                     2214                       # What write queue length does an incoming req see
system.physmem.wrQLenPdf::37                     2179                       # What write queue length does an incoming req see
system.physmem.wrQLenPdf::38                     1803                       # What write queue length does an incoming req see
system.physmem.wrQLenPdf::39                     1883                       # What write queue length does an incoming req see
system.physmem.wrQLenPdf::40                     2499                       # What write queue length does an incoming req see
system.physmem.wrQLenPdf::41                     1872                       # What write queue length does an incoming req see
system.physmem.wrQLenPdf::42                     1797                       # What write queue length does an incoming req see
system.physmem.wrQLenPdf::43                     1557                       # What write queue length does an incoming req see
system.physmem.wrQLenPdf::44                     1902                       # What write queue length does an incoming req see
system.physmem.wrQLenPdf::45                     1747                       # What write queue length does an incoming req see
system.physmem.wrQLenPdf::46                     1424                       # What write queue length does an incoming req see
system.physmem.wrQLenPdf::47                     1124                       # What write queue length does an incoming req see
system.physmem.wrQLenPdf::48                     1057                       # What write queue length does an incoming req see
system.physmem.wrQLenPdf::49                      786                       # What write queue length does an incoming req see
system.physmem.wrQLenPdf::50                      394                       # What write queue length does an incoming req see
system.physmem.wrQLenPdf::51                      308                       # What write queue length does an incoming req see
system.physmem.wrQLenPdf::52                      312                       # What write queue length does an incoming req see
system.physmem.wrQLenPdf::53                      236                       # What write queue length does an incoming req see
system.physmem.wrQLenPdf::54                      191                       # What write queue length does an incoming req see
system.physmem.wrQLenPdf::55                      128                       # What write queue length does an incoming req see
system.physmem.wrQLenPdf::56                      140                       # What write queue length does an incoming req see
system.physmem.wrQLenPdf::57                      152                       # What write queue length does an incoming req see
system.physmem.wrQLenPdf::58                      104                       # What write queue length does an incoming req see
system.physmem.wrQLenPdf::59                       88                       # What write queue length does an incoming req see
system.physmem.wrQLenPdf::60                       92                       # What write queue length does an incoming req see
system.physmem.wrQLenPdf::61                       67                       # What write queue length does an incoming req see
system.physmem.wrQLenPdf::62                       35                       # What write queue length does an incoming req see
system.physmem.wrQLenPdf::63                       40                       # What write queue length does an incoming req see
system.physmem.bytesPerActivate::samples        57876                       # Bytes accessed per row activation
system.physmem.bytesPerActivate::mean      330.211072                       # Bytes accessed per row activation
system.physmem.bytesPerActivate::gmean     191.290947                       # Bytes accessed per row activation
system.physmem.bytesPerActivate::stdev     346.940345                       # Bytes accessed per row activation
system.physmem.bytesPerActivate::0-127          20714     35.79%     35.79% # Bytes accessed per row activation
system.physmem.bytesPerActivate::128-255        14256     24.63%     60.42% # Bytes accessed per row activation
system.physmem.bytesPerActivate::256-383         5208      9.00%     69.42% # Bytes accessed per row activation
system.physmem.bytesPerActivate::384-511         3123      5.40%     74.82% # Bytes accessed per row activation
system.physmem.bytesPerActivate::512-639         2440      4.22%     79.03% # Bytes accessed per row activation
system.physmem.bytesPerActivate::640-767         1489      2.57%     81.61% # Bytes accessed per row activation
system.physmem.bytesPerActivate::768-895         1071      1.85%     83.46% # Bytes accessed per row activation
system.physmem.bytesPerActivate::896-1023         1111      1.92%     85.38% # Bytes accessed per row activation
system.physmem.bytesPerActivate::1024-1151         8464     14.62%    100.00% # Bytes accessed per row activation
system.physmem.bytesPerActivate::total          57876                       # Bytes accessed per row activation
system.physmem.rdPerTurnAround::samples          5262                       # Reads before turning the bus around for writes
system.physmem.rdPerTurnAround::mean        31.441087                       # Reads before turning the bus around for writes
system.physmem.rdPerTurnAround::stdev      579.786182                       # Reads before turning the bus around for writes
system.physmem.rdPerTurnAround::0-2047           5260     99.96%     99.96% # Reads before turning the bus around for writes
system.physmem.rdPerTurnAround::2048-4095            1      0.02%     99.98% # Reads before turning the bus around for writes
system.physmem.rdPerTurnAround::40960-43007            1      0.02%    100.00% # Reads before turning the bus around for writes
system.physmem.rdPerTurnAround::total            5262                       # Reads before turning the bus around for writes
system.physmem.wrPerTurnAround::samples          5262                       # Writes before turning the bus around for reads
system.physmem.wrPerTurnAround::mean        25.307108                       # Writes before turning the bus around for reads
system.physmem.wrPerTurnAround::gmean       18.699141                       # Writes before turning the bus around for reads
system.physmem.wrPerTurnAround::stdev       47.946490                       # Writes before turning the bus around for reads
system.physmem.wrPerTurnAround::0-15               45      0.86%      0.86% # Writes before turning the bus around for reads
system.physmem.wrPerTurnAround::16-31            4897     93.06%     93.92% # Writes before turning the bus around for reads
system.physmem.wrPerTurnAround::32-47              79      1.50%     95.42% # Writes before turning the bus around for reads
system.physmem.wrPerTurnAround::48-63              16      0.30%     95.72% # Writes before turning the bus around for reads
system.physmem.wrPerTurnAround::64-79              14      0.27%     95.99% # Writes before turning the bus around for reads
system.physmem.wrPerTurnAround::80-95              19      0.36%     96.35% # Writes before turning the bus around for reads
system.physmem.wrPerTurnAround::96-111             31      0.59%     96.94% # Writes before turning the bus around for reads
system.physmem.wrPerTurnAround::112-127            27      0.51%     97.45% # Writes before turning the bus around for reads
system.physmem.wrPerTurnAround::128-143            13      0.25%     97.70% # Writes before turning the bus around for reads
system.physmem.wrPerTurnAround::144-159             8      0.15%     97.85% # Writes before turning the bus around for reads
system.physmem.wrPerTurnAround::160-175             3      0.06%     97.91% # Writes before turning the bus around for reads
system.physmem.wrPerTurnAround::176-191            23      0.44%     98.35% # Writes before turning the bus around for reads
system.physmem.wrPerTurnAround::192-207            14      0.27%     98.61% # Writes before turning the bus around for reads
system.physmem.wrPerTurnAround::208-223            10      0.19%     98.80% # Writes before turning the bus around for reads
system.physmem.wrPerTurnAround::224-239             3      0.06%     98.86% # Writes before turning the bus around for reads
system.physmem.wrPerTurnAround::240-255             3      0.06%     98.92% # Writes before turning the bus around for reads
system.physmem.wrPerTurnAround::256-271             3      0.06%     98.97% # Writes before turning the bus around for reads
system.physmem.wrPerTurnAround::272-287             4      0.08%     99.05% # Writes before turning the bus around for reads
system.physmem.wrPerTurnAround::288-303             8      0.15%     99.20% # Writes before turning the bus around for reads
system.physmem.wrPerTurnAround::304-319             4      0.08%     99.28% # Writes before turning the bus around for reads
system.physmem.wrPerTurnAround::320-335             3      0.06%     99.33% # Writes before turning the bus around for reads
system.physmem.wrPerTurnAround::336-351             5      0.10%     99.43% # Writes before turning the bus around for reads
system.physmem.wrPerTurnAround::352-367             8      0.15%     99.58% # Writes before turning the bus around for reads
system.physmem.wrPerTurnAround::368-383             1      0.02%     99.60% # Writes before turning the bus around for reads
system.physmem.wrPerTurnAround::384-399             1      0.02%     99.62% # Writes before turning the bus around for reads
system.physmem.wrPerTurnAround::416-431             1      0.02%     99.64% # Writes before turning the bus around for reads
system.physmem.wrPerTurnAround::432-447             1      0.02%     99.66% # Writes before turning the bus around for reads
system.physmem.wrPerTurnAround::464-479             1      0.02%     99.68% # Writes before turning the bus around for reads
system.physmem.wrPerTurnAround::496-511             3      0.06%     99.73% # Writes before turning the bus around for reads
system.physmem.wrPerTurnAround::512-527             1      0.02%     99.75% # Writes before turning the bus around for reads
system.physmem.wrPerTurnAround::528-543             3      0.06%     99.81% # Writes before turning the bus around for reads
system.physmem.wrPerTurnAround::544-559             3      0.06%     99.87% # Writes before turning the bus around for reads
system.physmem.wrPerTurnAround::560-575             1      0.02%     99.89% # Writes before turning the bus around for reads
system.physmem.wrPerTurnAround::608-623             1      0.02%     99.90% # Writes before turning the bus around for reads
system.physmem.wrPerTurnAround::656-671             1      0.02%     99.92% # Writes before turning the bus around for reads
system.physmem.wrPerTurnAround::672-687             1      0.02%     99.94% # Writes before turning the bus around for reads
system.physmem.wrPerTurnAround::688-703             1      0.02%     99.96% # Writes before turning the bus around for reads
system.physmem.wrPerTurnAround::720-735             2      0.04%    100.00% # Writes before turning the bus around for reads
system.physmem.wrPerTurnAround::total            5262                       # Writes before turning the bus around for reads
system.physmem.totQLat                     1437662314                       # Total ticks spent queuing
system.physmem.totMemAccLat                4539831064                       # Total ticks spent from burst creation until serviced by the DRAM
system.physmem.totBusLat                    827245000                       # Total ticks spent in databus transfers
system.physmem.avgQLat                        8689.46                       # Average queueing delay per DRAM burst
system.physmem.avgBusLat                      5000.00                       # Average bus latency per DRAM burst
system.physmem.avgMemAccLat                  27439.46                       # Average memory access latency per DRAM burst
system.physmem.avgRdBW                           3.65                       # Average DRAM read bandwidth in MiByte/s
system.physmem.avgWrBW                           2.94                       # Average achieved write bandwidth in MiByte/s
system.physmem.avgRdBWSys                        3.45                       # Average system read bandwidth in MiByte/s
system.physmem.avgWrBWSys                        3.36                       # Average system write bandwidth in MiByte/s
system.physmem.peakBW                        12800.00                       # Theoretical peak bandwidth in MiByte/s
system.physmem.busUtil                           0.05                       # Data bus utilization in percentage
system.physmem.busUtilRead                       0.03                       # Data bus utilization in percentage for reads
system.physmem.busUtilWrite                      0.02                       # Data bus utilization in percentage for writes
system.physmem.avgRdQLen                         1.00                       # Average read queue length when enqueuing
system.physmem.avgWrQLen                        10.50                       # Average write queue length when enqueuing
system.physmem.readRowHits                     136363                       # Number of row buffer hits during reads
system.physmem.writeRowHits                    104375                       # Number of row buffer hits during writes
system.physmem.readRowHitRate                   82.42                       # Row buffer hit rate for reads
system.physmem.writeRowHitRate                  78.38                       # Row buffer hit rate for writes
system.physmem.avgGap                      9008480.93                       # Average gap between requests
system.physmem.pageHitRate                      80.62                       # Row buffer hit rate, read and write combined
system.physmem_0.actEnergy                  229453560                       # Energy for activate commands per rank (pJ)
system.physmem_0.preEnergy                  125197875                       # Energy for precharge commands per rank (pJ)
system.physmem_0.readEnergy                 696337200                       # Energy for read commands per rank (pJ)
system.physmem_0.writeEnergy                441657360                       # Energy for write commands per rank (pJ)
system.physmem_0.refreshEnergy           189651686640                       # Energy for refresh commands per rank (pJ)
system.physmem_0.actBackEnergy            86953063950                       # Energy for active background per rank (pJ)
system.physmem_0.preBackEnergy           1665909868500                       # Energy for precharge background per rank (pJ)
system.physmem_0.totalEnergy             1944007265085                       # Total energy per rank (pJ)
system.physmem_0.averagePower              669.506799                       # Core power per rank (mW)
system.physmem_0.memoryStateTime::IDLE   2771232360210                       # Time in different power states
system.physmem_0.memoryStateTime::REF     96958940000                       # Time in different power states
system.physmem_0.memoryStateTime::PRE_PDN            0                       # Time in different power states
system.physmem_0.memoryStateTime::ACT     35449523540                       # Time in different power states
system.physmem_0.memoryStateTime::ACT_PDN            0                       # Time in different power states
system.physmem_1.actEnergy                  208089000                       # Energy for activate commands per rank (pJ)
system.physmem_1.preEnergy                  113540625                       # Energy for precharge commands per rank (pJ)
system.physmem_1.readEnergy                 594157200                       # Energy for read commands per rank (pJ)
system.physmem_1.writeEnergy                421258320                       # Energy for write commands per rank (pJ)
system.physmem_1.refreshEnergy           189651686640                       # Energy for refresh commands per rank (pJ)
system.physmem_1.actBackEnergy            84877892595                       # Energy for active background per rank (pJ)
system.physmem_1.preBackEnergy           1667730194250                       # Energy for precharge background per rank (pJ)
system.physmem_1.totalEnergy             1943596818630                       # Total energy per rank (pJ)
system.physmem_1.averagePower              669.365444                       # Core power per rank (mW)
system.physmem_1.memoryStateTime::IDLE   2774279366726                       # Time in different power states
system.physmem_1.memoryStateTime::REF     96958940000                       # Time in different power states
system.physmem_1.memoryStateTime::PRE_PDN            0                       # Time in different power states
system.physmem_1.memoryStateTime::ACT     32402517024                       # Time in different power states
system.physmem_1.memoryStateTime::ACT_PDN            0                       # Time in different power states
system.realview.nvmem.bytes_read::cpu0.inst           20                       # Number of bytes read from this memory
system.realview.nvmem.bytes_read::total            20                       # Number of bytes read from this memory
system.realview.nvmem.bytes_inst_read::cpu0.inst           20                       # Number of instructions bytes read from this memory
system.realview.nvmem.bytes_inst_read::total           20                       # Number of instructions bytes read from this memory
system.realview.nvmem.num_reads::cpu0.inst            5                       # Number of read requests responded to by this memory
system.realview.nvmem.num_reads::total              5                       # Number of read requests responded to by this memory
system.realview.nvmem.bw_read::cpu0.inst            7                       # Total read bandwidth from this memory (bytes/s)
system.realview.nvmem.bw_read::total                7                       # Total read bandwidth from this memory (bytes/s)
system.realview.nvmem.bw_inst_read::cpu0.inst            7                       # Instruction read bandwidth from this memory (bytes/s)
system.realview.nvmem.bw_inst_read::total            7                       # Instruction read bandwidth from this memory (bytes/s)
system.realview.nvmem.bw_total::cpu0.inst            7                       # Total bandwidth to/from this memory (bytes/s)
system.realview.nvmem.bw_total::total               7                       # Total bandwidth to/from this memory (bytes/s)
system.cf0.dma_read_full_pages                      0                       # Number of full page size DMA reads (not PRD).
system.cf0.dma_read_bytes                        1024                       # Number of bytes transfered via DMA reads (not PRD).
system.cf0.dma_read_txs                             1                       # Number of DMA read transactions (not PRD).
system.cf0.dma_write_full_pages                   540                       # Number of full page size DMA writes.
system.cf0.dma_write_bytes                    2318336                       # Number of bytes transfered via DMA writes.
system.cf0.dma_write_txs                          631                       # Number of DMA write transactions.
system.cpu_clk_domain.clock                       500                       # Clock period in ticks
system.cpu0.dstage2_mmu.stage2_tlb.walker.walks            0                       # Table walker walks requested
system.cpu0.dstage2_mmu.stage2_tlb.walker.walkRequestOrigin_Requested::Data            0                       # Table walker requests started/completed, data/inst
system.cpu0.dstage2_mmu.stage2_tlb.walker.walkRequestOrigin_Requested::Inst            0                       # Table walker requests started/completed, data/inst
system.cpu0.dstage2_mmu.stage2_tlb.walker.walkRequestOrigin_Requested::total            0                       # Table walker requests started/completed, data/inst
system.cpu0.dstage2_mmu.stage2_tlb.walker.walkRequestOrigin_Completed::Data            0                       # Table walker requests started/completed, data/inst
system.cpu0.dstage2_mmu.stage2_tlb.walker.walkRequestOrigin_Completed::Inst            0                       # Table walker requests started/completed, data/inst
system.cpu0.dstage2_mmu.stage2_tlb.walker.walkRequestOrigin_Completed::total            0                       # Table walker requests started/completed, data/inst
system.cpu0.dstage2_mmu.stage2_tlb.walker.walkRequestOrigin::total            0                       # Table walker requests started/completed, data/inst
system.cpu0.dstage2_mmu.stage2_tlb.inst_hits            0                       # ITB inst hits
system.cpu0.dstage2_mmu.stage2_tlb.inst_misses            0                       # ITB inst misses
system.cpu0.dstage2_mmu.stage2_tlb.read_hits            0                       # DTB read hits
system.cpu0.dstage2_mmu.stage2_tlb.read_misses            0                       # DTB read misses
system.cpu0.dstage2_mmu.stage2_tlb.write_hits            0                       # DTB write hits
system.cpu0.dstage2_mmu.stage2_tlb.write_misses            0                       # DTB write misses
system.cpu0.dstage2_mmu.stage2_tlb.flush_tlb            0                       # Number of times complete TLB was flushed
system.cpu0.dstage2_mmu.stage2_tlb.flush_tlb_mva            0                       # Number of times TLB was flushed by MVA
system.cpu0.dstage2_mmu.stage2_tlb.flush_tlb_mva_asid            0                       # Number of times TLB was flushed by MVA & ASID
system.cpu0.dstage2_mmu.stage2_tlb.flush_tlb_asid            0                       # Number of times TLB was flushed by ASID
system.cpu0.dstage2_mmu.stage2_tlb.flush_entries            0                       # Number of entries that have been flushed from TLB
system.cpu0.dstage2_mmu.stage2_tlb.align_faults            0                       # Number of TLB faults due to alignment restrictions
system.cpu0.dstage2_mmu.stage2_tlb.prefetch_faults            0                       # Number of TLB faults due to prefetch
system.cpu0.dstage2_mmu.stage2_tlb.domain_faults            0                       # Number of TLB faults due to domain restrictions
system.cpu0.dstage2_mmu.stage2_tlb.perms_faults            0                       # Number of TLB faults due to permissions restrictions
system.cpu0.dstage2_mmu.stage2_tlb.read_accesses            0                       # DTB read accesses
system.cpu0.dstage2_mmu.stage2_tlb.write_accesses            0                       # DTB write accesses
system.cpu0.dstage2_mmu.stage2_tlb.inst_accesses            0                       # ITB inst accesses
system.cpu0.dstage2_mmu.stage2_tlb.hits             0                       # DTB hits
system.cpu0.dstage2_mmu.stage2_tlb.misses            0                       # DTB misses
system.cpu0.dstage2_mmu.stage2_tlb.accesses            0                       # DTB accesses
system.cpu0.dtb.walker.walks                     6899                       # Table walker walks requested
system.cpu0.dtb.walker.walksShort                6899                       # Table walker walks initiated with short descriptors
system.cpu0.dtb.walker.walksShortTerminationLevel::Level1         2220                       # Level at which table walker walks with short descriptors terminate
system.cpu0.dtb.walker.walksShortTerminationLevel::Level2         4679                       # Level at which table walker walks with short descriptors terminate
system.cpu0.dtb.walker.walkWaitTime::samples         6899                       # Table walker wait (enqueue to first request) latency
system.cpu0.dtb.walker.walkWaitTime::0           6899    100.00%    100.00% # Table walker wait (enqueue to first request) latency
system.cpu0.dtb.walker.walkWaitTime::total         6899                       # Table walker wait (enqueue to first request) latency
system.cpu0.dtb.walker.walkCompletionTime::samples         5841                       # Table walker service (enqueue to completion) latency
system.cpu0.dtb.walker.walkCompletionTime::mean 12315.228557                       # Table walker service (enqueue to completion) latency
system.cpu0.dtb.walker.walkCompletionTime::gmean 10506.489584                       # Table walker service (enqueue to completion) latency
system.cpu0.dtb.walker.walkCompletionTime::stdev  6688.963614                       # Table walker service (enqueue to completion) latency
system.cpu0.dtb.walker.walkCompletionTime::0-16383         4458     76.32%     76.32% # Table walker service (enqueue to completion) latency
system.cpu0.dtb.walker.walkCompletionTime::16384-32767         1381     23.64%     99.97% # Table walker service (enqueue to completion) latency
system.cpu0.dtb.walker.walkCompletionTime::81920-98303            1      0.02%     99.98% # Table walker service (enqueue to completion) latency
system.cpu0.dtb.walker.walkCompletionTime::180224-196607            1      0.02%    100.00% # Table walker service (enqueue to completion) latency
system.cpu0.dtb.walker.walkCompletionTime::total         5841                       # Table walker service (enqueue to completion) latency
system.cpu0.dtb.walker.walksPending::samples    937449500                       # Table walker pending requests distribution
system.cpu0.dtb.walker.walksPending::0      937449500    100.00%    100.00% # Table walker pending requests distribution
system.cpu0.dtb.walker.walksPending::total    937449500                       # Table walker pending requests distribution
system.cpu0.dtb.walker.walkPageSizes::4K         3645     62.40%     62.40% # Table walker page sizes translated
system.cpu0.dtb.walker.walkPageSizes::1M         2196     37.60%    100.00% # Table walker page sizes translated
system.cpu0.dtb.walker.walkPageSizes::total         5841                       # Table walker page sizes translated
system.cpu0.dtb.walker.walkRequestOrigin_Requested::Data         6899                       # Table walker requests started/completed, data/inst
system.cpu0.dtb.walker.walkRequestOrigin_Requested::Inst            0                       # Table walker requests started/completed, data/inst
system.cpu0.dtb.walker.walkRequestOrigin_Requested::total         6899                       # Table walker requests started/completed, data/inst
system.cpu0.dtb.walker.walkRequestOrigin_Completed::Data         5841                       # Table walker requests started/completed, data/inst
system.cpu0.dtb.walker.walkRequestOrigin_Completed::Inst            0                       # Table walker requests started/completed, data/inst
system.cpu0.dtb.walker.walkRequestOrigin_Completed::total         5841                       # Table walker requests started/completed, data/inst
system.cpu0.dtb.walker.walkRequestOrigin::total        12740                       # Table walker requests started/completed, data/inst
system.cpu0.dtb.inst_hits                           0                       # ITB inst hits
system.cpu0.dtb.inst_misses                         0                       # ITB inst misses
system.cpu0.dtb.read_hits                    12462635                       # DTB read hits
system.cpu0.dtb.read_misses                      5988                       # DTB read misses
system.cpu0.dtb.write_hits                    9832923                       # DTB write hits
system.cpu0.dtb.write_misses                      911                       # DTB write misses
system.cpu0.dtb.flush_tlb                        2938                       # Number of times complete TLB was flushed
system.cpu0.dtb.flush_tlb_mva                     496                       # Number of times TLB was flushed by MVA
system.cpu0.dtb.flush_tlb_mva_asid                  0                       # Number of times TLB was flushed by MVA & ASID
system.cpu0.dtb.flush_tlb_asid                      0                       # Number of times TLB was flushed by ASID
system.cpu0.dtb.flush_entries                    4660                       # Number of entries that have been flushed from TLB
system.cpu0.dtb.align_faults                        0                       # Number of TLB faults due to alignment restrictions
system.cpu0.dtb.prefetch_faults                   940                       # Number of TLB faults due to prefetch
system.cpu0.dtb.domain_faults                       0                       # Number of TLB faults due to domain restrictions
system.cpu0.dtb.perms_faults                      240                       # Number of TLB faults due to permissions restrictions
system.cpu0.dtb.read_accesses                12468623                       # DTB read accesses
system.cpu0.dtb.write_accesses                9833834                       # DTB write accesses
system.cpu0.dtb.inst_accesses                       0                       # ITB inst accesses
system.cpu0.dtb.hits                         22295558                       # DTB hits
system.cpu0.dtb.misses                           6899                       # DTB misses
system.cpu0.dtb.accesses                     22302457                       # DTB accesses
system.cpu0.istage2_mmu.stage2_tlb.walker.walks            0                       # Table walker walks requested
system.cpu0.istage2_mmu.stage2_tlb.walker.walkRequestOrigin_Requested::Data            0                       # Table walker requests started/completed, data/inst
system.cpu0.istage2_mmu.stage2_tlb.walker.walkRequestOrigin_Requested::Inst            0                       # Table walker requests started/completed, data/inst
system.cpu0.istage2_mmu.stage2_tlb.walker.walkRequestOrigin_Requested::total            0                       # Table walker requests started/completed, data/inst
system.cpu0.istage2_mmu.stage2_tlb.walker.walkRequestOrigin_Completed::Data            0                       # Table walker requests started/completed, data/inst
system.cpu0.istage2_mmu.stage2_tlb.walker.walkRequestOrigin_Completed::Inst            0                       # Table walker requests started/completed, data/inst
system.cpu0.istage2_mmu.stage2_tlb.walker.walkRequestOrigin_Completed::total            0                       # Table walker requests started/completed, data/inst
system.cpu0.istage2_mmu.stage2_tlb.walker.walkRequestOrigin::total            0                       # Table walker requests started/completed, data/inst
system.cpu0.istage2_mmu.stage2_tlb.inst_hits            0                       # ITB inst hits
system.cpu0.istage2_mmu.stage2_tlb.inst_misses            0                       # ITB inst misses
system.cpu0.istage2_mmu.stage2_tlb.read_hits            0                       # DTB read hits
system.cpu0.istage2_mmu.stage2_tlb.read_misses            0                       # DTB read misses
system.cpu0.istage2_mmu.stage2_tlb.write_hits            0                       # DTB write hits
system.cpu0.istage2_mmu.stage2_tlb.write_misses            0                       # DTB write misses
system.cpu0.istage2_mmu.stage2_tlb.flush_tlb            0                       # Number of times complete TLB was flushed
system.cpu0.istage2_mmu.stage2_tlb.flush_tlb_mva            0                       # Number of times TLB was flushed by MVA
system.cpu0.istage2_mmu.stage2_tlb.flush_tlb_mva_asid            0                       # Number of times TLB was flushed by MVA & ASID
system.cpu0.istage2_mmu.stage2_tlb.flush_tlb_asid            0                       # Number of times TLB was flushed by ASID
system.cpu0.istage2_mmu.stage2_tlb.flush_entries            0                       # Number of entries that have been flushed from TLB
system.cpu0.istage2_mmu.stage2_tlb.align_faults            0                       # Number of TLB faults due to alignment restrictions
system.cpu0.istage2_mmu.stage2_tlb.prefetch_faults            0                       # Number of TLB faults due to prefetch
system.cpu0.istage2_mmu.stage2_tlb.domain_faults            0                       # Number of TLB faults due to domain restrictions
system.cpu0.istage2_mmu.stage2_tlb.perms_faults            0                       # Number of TLB faults due to permissions restrictions
system.cpu0.istage2_mmu.stage2_tlb.read_accesses            0                       # DTB read accesses
system.cpu0.istage2_mmu.stage2_tlb.write_accesses            0                       # DTB write accesses
system.cpu0.istage2_mmu.stage2_tlb.inst_accesses            0                       # ITB inst accesses
system.cpu0.istage2_mmu.stage2_tlb.hits             0                       # DTB hits
system.cpu0.istage2_mmu.stage2_tlb.misses            0                       # DTB misses
system.cpu0.istage2_mmu.stage2_tlb.accesses            0                       # DTB accesses
system.cpu0.itb.walker.walks                     3577                       # Table walker walks requested
system.cpu0.itb.walker.walksShort                3577                       # Table walker walks initiated with short descriptors
system.cpu0.itb.walker.walksShortTerminationLevel::Level1          835                       # Level at which table walker walks with short descriptors terminate
system.cpu0.itb.walker.walksShortTerminationLevel::Level2         2742                       # Level at which table walker walks with short descriptors terminate
system.cpu0.itb.walker.walkWaitTime::samples         3577                       # Table walker wait (enqueue to first request) latency
system.cpu0.itb.walker.walkWaitTime::0           3577    100.00%    100.00% # Table walker wait (enqueue to first request) latency
system.cpu0.itb.walker.walkWaitTime::total         3577                       # Table walker wait (enqueue to first request) latency
system.cpu0.itb.walker.walkCompletionTime::samples         2726                       # Table walker service (enqueue to completion) latency
system.cpu0.itb.walker.walkCompletionTime::mean 12637.197359                       # Table walker service (enqueue to completion) latency
system.cpu0.itb.walker.walkCompletionTime::gmean 10746.267304                       # Table walker service (enqueue to completion) latency
system.cpu0.itb.walker.walkCompletionTime::stdev  6704.748097                       # Table walker service (enqueue to completion) latency
system.cpu0.itb.walker.walkCompletionTime::0-8191          633     23.22%     23.22% # Table walker service (enqueue to completion) latency
system.cpu0.itb.walker.walkCompletionTime::8192-16383         1408     51.65%     74.87% # Table walker service (enqueue to completion) latency
system.cpu0.itb.walker.walkCompletionTime::16384-24575          683     25.06%     99.93% # Table walker service (enqueue to completion) latency
system.cpu0.itb.walker.walkCompletionTime::81920-90111            1      0.04%     99.96% # Table walker service (enqueue to completion) latency
system.cpu0.itb.walker.walkCompletionTime::90112-98303            1      0.04%    100.00% # Table walker service (enqueue to completion) latency
system.cpu0.itb.walker.walkCompletionTime::total         2726                       # Table walker service (enqueue to completion) latency
system.cpu0.itb.walker.walksPending::samples    937122000                       # Table walker pending requests distribution
system.cpu0.itb.walker.walksPending::0      937122000    100.00%    100.00% # Table walker pending requests distribution
system.cpu0.itb.walker.walksPending::total    937122000                       # Table walker pending requests distribution
system.cpu0.itb.walker.walkPageSizes::4K         1891     69.37%     69.37% # Table walker page sizes translated
system.cpu0.itb.walker.walkPageSizes::1M          835     30.63%    100.00% # Table walker page sizes translated
system.cpu0.itb.walker.walkPageSizes::total         2726                       # Table walker page sizes translated
system.cpu0.itb.walker.walkRequestOrigin_Requested::Data            0                       # Table walker requests started/completed, data/inst
system.cpu0.itb.walker.walkRequestOrigin_Requested::Inst         3577                       # Table walker requests started/completed, data/inst
system.cpu0.itb.walker.walkRequestOrigin_Requested::total         3577                       # Table walker requests started/completed, data/inst
system.cpu0.itb.walker.walkRequestOrigin_Completed::Data            0                       # Table walker requests started/completed, data/inst
system.cpu0.itb.walker.walkRequestOrigin_Completed::Inst         2726                       # Table walker requests started/completed, data/inst
system.cpu0.itb.walker.walkRequestOrigin_Completed::total         2726                       # Table walker requests started/completed, data/inst
system.cpu0.itb.walker.walkRequestOrigin::total         6303                       # Table walker requests started/completed, data/inst
system.cpu0.itb.inst_hits                    58414032                       # ITB inst hits
system.cpu0.itb.inst_misses                      3577                       # ITB inst misses
system.cpu0.itb.read_hits                           0                       # DTB read hits
system.cpu0.itb.read_misses                         0                       # DTB read misses
system.cpu0.itb.write_hits                          0                       # DTB write hits
system.cpu0.itb.write_misses                        0                       # DTB write misses
system.cpu0.itb.flush_tlb                        2938                       # Number of times complete TLB was flushed
system.cpu0.itb.flush_tlb_mva                     496                       # Number of times TLB was flushed by MVA
system.cpu0.itb.flush_tlb_mva_asid                  0                       # Number of times TLB was flushed by MVA & ASID
system.cpu0.itb.flush_tlb_asid                      0                       # Number of times TLB was flushed by ASID
system.cpu0.itb.flush_entries                    2760                       # Number of entries that have been flushed from TLB
system.cpu0.itb.align_faults                        0                       # Number of TLB faults due to alignment restrictions
system.cpu0.itb.prefetch_faults                     0                       # Number of TLB faults due to prefetch
system.cpu0.itb.domain_faults                       0                       # Number of TLB faults due to domain restrictions
system.cpu0.itb.perms_faults                        0                       # Number of TLB faults due to permissions restrictions
system.cpu0.itb.read_accesses                       0                       # DTB read accesses
system.cpu0.itb.write_accesses                      0                       # DTB write accesses
system.cpu0.itb.inst_accesses                58417609                       # ITB inst accesses
system.cpu0.itb.hits                         58414032                       # DTB hits
system.cpu0.itb.misses                           3577                       # DTB misses
system.cpu0.itb.accesses                     58417609                       # DTB accesses
system.cpu0.numCycles                      2904051621                       # number of cpu cycles simulated
system.cpu0.numWorkItemsStarted                     0                       # number of work items this cpu started
system.cpu0.numWorkItemsCompleted                   0                       # number of work items this cpu completed
system.cpu0.committedInsts                   56844590                       # Number of instructions committed
system.cpu0.committedOps                     68476862                       # Number of ops (including micro ops) committed
system.cpu0.num_int_alu_accesses             60556147                       # Number of integer alu accesses
system.cpu0.num_fp_alu_accesses                  5891                       # Number of float alu accesses
system.cpu0.num_func_calls                    5072041                       # number of times a function call or return occured
system.cpu0.num_conditional_control_insts      7664286                       # number of instructions that are conditional controls
system.cpu0.num_int_insts                    60556147                       # number of integer instructions
system.cpu0.num_fp_insts                         5891                       # number of float instructions
system.cpu0.num_int_register_reads          110162183                       # number of times the integer registers were read
system.cpu0.num_int_register_writes          41899351                       # number of times the integer registers were written
system.cpu0.num_fp_register_reads                4609                       # number of times the floating registers were read
system.cpu0.num_fp_register_writes               1284                       # number of times the floating registers were written
system.cpu0.num_cc_register_reads           247668564                       # number of times the CC registers were read
system.cpu0.num_cc_register_writes           26017746                       # number of times the CC registers were written
system.cpu0.num_mem_refs                     22952183                       # number of memory refs
system.cpu0.num_load_insts                   12628752                       # Number of load instructions
system.cpu0.num_store_insts                  10323431                       # Number of store instructions
system.cpu0.num_idle_cycles              2690582406.498001                       # Number of idle cycles
system.cpu0.num_busy_cycles              213469214.501999                       # Number of busy cycles
system.cpu0.not_idle_fraction                0.073507                       # Percentage of non-idle cycles
system.cpu0.idle_fraction                    0.926493                       # Percentage of idle cycles
system.cpu0.Branches                         13135796                       # Number of branches fetched
system.cpu0.op_class::No_OpClass                 2207      0.00%      0.00% # Class of executed instruction
system.cpu0.op_class::IntAlu                 47055843     67.15%     67.15% # Class of executed instruction
system.cpu0.op_class::IntMult                   59396      0.08%     67.24% # Class of executed instruction
system.cpu0.op_class::IntDiv                        0      0.00%     67.24% # Class of executed instruction
system.cpu0.op_class::FloatAdd                      0      0.00%     67.24% # Class of executed instruction
system.cpu0.op_class::FloatCmp                      0      0.00%     67.24% # Class of executed instruction
system.cpu0.op_class::FloatCvt                      0      0.00%     67.24% # Class of executed instruction
system.cpu0.op_class::FloatMult                     0      0.00%     67.24% # Class of executed instruction
system.cpu0.op_class::FloatDiv                      0      0.00%     67.24% # Class of executed instruction
system.cpu0.op_class::FloatSqrt                     0      0.00%     67.24% # Class of executed instruction
system.cpu0.op_class::SimdAdd                       0      0.00%     67.24% # Class of executed instruction
system.cpu0.op_class::SimdAddAcc                    0      0.00%     67.24% # Class of executed instruction
system.cpu0.op_class::SimdAlu                       0      0.00%     67.24% # Class of executed instruction
system.cpu0.op_class::SimdCmp                       0      0.00%     67.24% # Class of executed instruction
system.cpu0.op_class::SimdCvt                       0      0.00%     67.24% # Class of executed instruction
system.cpu0.op_class::SimdMisc                      0      0.00%     67.24% # Class of executed instruction
system.cpu0.op_class::SimdMult                      0      0.00%     67.24% # Class of executed instruction
system.cpu0.op_class::SimdMultAcc                   0      0.00%     67.24% # Class of executed instruction
system.cpu0.op_class::SimdShift                     0      0.00%     67.24% # Class of executed instruction
system.cpu0.op_class::SimdShiftAcc                  0      0.00%     67.24% # Class of executed instruction
system.cpu0.op_class::SimdSqrt                      0      0.00%     67.24% # Class of executed instruction
system.cpu0.op_class::SimdFloatAdd                  0      0.00%     67.24% # Class of executed instruction
system.cpu0.op_class::SimdFloatAlu                  0      0.00%     67.24% # Class of executed instruction
system.cpu0.op_class::SimdFloatCmp                  0      0.00%     67.24% # Class of executed instruction
system.cpu0.op_class::SimdFloatCvt                  0      0.00%     67.24% # Class of executed instruction
system.cpu0.op_class::SimdFloatDiv                  0      0.00%     67.24% # Class of executed instruction
system.cpu0.op_class::SimdFloatMisc              4431      0.01%     67.25% # Class of executed instruction
system.cpu0.op_class::SimdFloatMult                 0      0.00%     67.25% # Class of executed instruction
system.cpu0.op_class::SimdFloatMultAcc              0      0.00%     67.25% # Class of executed instruction
system.cpu0.op_class::SimdFloatSqrt                 0      0.00%     67.25% # Class of executed instruction
system.cpu0.op_class::MemRead                12628752     18.02%     85.27% # Class of executed instruction
system.cpu0.op_class::MemWrite               10323431     14.73%    100.00% # Class of executed instruction
system.cpu0.op_class::IprAccess                     0      0.00%    100.00% # Class of executed instruction
system.cpu0.op_class::InstPrefetch                  0      0.00%    100.00% # Class of executed instruction
system.cpu0.op_class::total                  70074060                       # Class of executed instruction
system.cpu0.kern.inst.arm                           0                       # number of arm instructions executed
system.cpu0.kern.inst.quiesce                    3032                       # number of quiesce instructions executed
system.cpu0.dcache.tags.replacements           821716                       # number of replacements
system.cpu0.dcache.tags.tagsinuse          511.827808                       # Cycle average of tags in use
system.cpu0.dcache.tags.total_refs           43234238                       # Total number of references to valid blocks.
system.cpu0.dcache.tags.sampled_refs           822228                       # Sample count of references to valid blocks.
system.cpu0.dcache.tags.avg_refs            52.581812                       # Average number of references to valid blocks.
system.cpu0.dcache.tags.warmup_cycle       1008982250                       # Cycle when the warmup percentage was hit.
system.cpu0.dcache.tags.occ_blocks::cpu0.data   377.484524                       # Average occupied blocks per requestor
system.cpu0.dcache.tags.occ_blocks::cpu1.data   134.343284                       # Average occupied blocks per requestor
system.cpu0.dcache.tags.occ_percent::cpu0.data     0.737274                       # Average percentage of cache occupancy
system.cpu0.dcache.tags.occ_percent::cpu1.data     0.262389                       # Average percentage of cache occupancy
system.cpu0.dcache.tags.occ_percent::total     0.999664                       # Average percentage of cache occupancy
system.cpu0.dcache.tags.occ_task_id_blocks::1024          512                       # Occupied blocks per task id
system.cpu0.dcache.tags.age_task_id_blocks_1024::0           57                       # Occupied blocks per task id
system.cpu0.dcache.tags.age_task_id_blocks_1024::1          373                       # Occupied blocks per task id
system.cpu0.dcache.tags.age_task_id_blocks_1024::2           82                       # Occupied blocks per task id
system.cpu0.dcache.tags.occ_task_id_percent::1024            1                       # Percentage of cache occupancy per task id
system.cpu0.dcache.tags.tag_accesses        177115546                       # Number of tag accesses
system.cpu0.dcache.tags.data_accesses       177115546                       # Number of data accesses
system.cpu0.dcache.ReadReq_hits::cpu0.data     11742107                       # number of ReadReq hits
system.cpu0.dcache.ReadReq_hits::cpu1.data     11368313                       # number of ReadReq hits
system.cpu0.dcache.ReadReq_hits::total       23110420                       # number of ReadReq hits
system.cpu0.dcache.WriteReq_hits::cpu0.data      9438605                       # number of WriteReq hits
system.cpu0.dcache.WriteReq_hits::cpu1.data      9386535                       # number of WriteReq hits
system.cpu0.dcache.WriteReq_hits::total      18825140                       # number of WriteReq hits
system.cpu0.dcache.SoftPFReq_hits::cpu0.data       200385                       # number of SoftPFReq hits
system.cpu0.dcache.SoftPFReq_hits::cpu1.data       191808                       # number of SoftPFReq hits
system.cpu0.dcache.SoftPFReq_hits::total       392193                       # number of SoftPFReq hits
system.cpu0.dcache.LoadLockedReq_hits::cpu0.data       230728                       # number of LoadLockedReq hits
system.cpu0.dcache.LoadLockedReq_hits::cpu1.data       212742                       # number of LoadLockedReq hits
system.cpu0.dcache.LoadLockedReq_hits::total       443470                       # number of LoadLockedReq hits
system.cpu0.dcache.StoreCondReq_hits::cpu0.data       239351                       # number of StoreCondReq hits
system.cpu0.dcache.StoreCondReq_hits::cpu1.data       220930                       # number of StoreCondReq hits
system.cpu0.dcache.StoreCondReq_hits::total       460281                       # number of StoreCondReq hits
system.cpu0.dcache.demand_hits::cpu0.data     21180712                       # number of demand (read+write) hits
system.cpu0.dcache.demand_hits::cpu1.data     20754848                       # number of demand (read+write) hits
system.cpu0.dcache.demand_hits::total        41935560                       # number of demand (read+write) hits
system.cpu0.dcache.overall_hits::cpu0.data     21381097                       # number of overall hits
system.cpu0.dcache.overall_hits::cpu1.data     20946656                       # number of overall hits
system.cpu0.dcache.overall_hits::total       42327753                       # number of overall hits
system.cpu0.dcache.ReadReq_misses::cpu0.data       202379                       # number of ReadReq misses
system.cpu0.dcache.ReadReq_misses::cpu1.data       199779                       # number of ReadReq misses
system.cpu0.dcache.ReadReq_misses::total       402158                       # number of ReadReq misses
system.cpu0.dcache.WriteReq_misses::cpu0.data       143306                       # number of WriteReq misses
system.cpu0.dcache.WriteReq_misses::cpu1.data       155169                       # number of WriteReq misses
system.cpu0.dcache.WriteReq_misses::total       298475                       # number of WriteReq misses
system.cpu0.dcache.SoftPFReq_misses::cpu0.data        60388                       # number of SoftPFReq misses
system.cpu0.dcache.SoftPFReq_misses::cpu1.data        58192                       # number of SoftPFReq misses
system.cpu0.dcache.SoftPFReq_misses::total       118580                       # number of SoftPFReq misses
system.cpu0.dcache.LoadLockedReq_misses::cpu0.data        11633                       # number of LoadLockedReq misses
system.cpu0.dcache.LoadLockedReq_misses::cpu1.data        10971                       # number of LoadLockedReq misses
system.cpu0.dcache.LoadLockedReq_misses::total        22604                       # number of LoadLockedReq misses
system.cpu0.dcache.StoreCondReq_misses::cpu0.data            2                       # number of StoreCondReq misses
system.cpu0.dcache.StoreCondReq_misses::total            2                       # number of StoreCondReq misses
system.cpu0.dcache.demand_misses::cpu0.data       345685                       # number of demand (read+write) misses
system.cpu0.dcache.demand_misses::cpu1.data       354948                       # number of demand (read+write) misses
system.cpu0.dcache.demand_misses::total        700633                       # number of demand (read+write) misses
system.cpu0.dcache.overall_misses::cpu0.data       406073                       # number of overall misses
system.cpu0.dcache.overall_misses::cpu1.data       413140                       # number of overall misses
system.cpu0.dcache.overall_misses::total       819213                       # number of overall misses
system.cpu0.dcache.ReadReq_miss_latency::cpu0.data   2998718242                       # number of ReadReq miss cycles
system.cpu0.dcache.ReadReq_miss_latency::cpu1.data   2978169130                       # number of ReadReq miss cycles
system.cpu0.dcache.ReadReq_miss_latency::total   5976887372                       # number of ReadReq miss cycles
system.cpu0.dcache.WriteReq_miss_latency::cpu0.data   5523492960                       # number of WriteReq miss cycles
system.cpu0.dcache.WriteReq_miss_latency::cpu1.data   6886936529                       # number of WriteReq miss cycles
system.cpu0.dcache.WriteReq_miss_latency::total  12410429489                       # number of WriteReq miss cycles
system.cpu0.dcache.LoadLockedReq_miss_latency::cpu0.data    144593750                       # number of LoadLockedReq miss cycles
system.cpu0.dcache.LoadLockedReq_miss_latency::cpu1.data    135344000                       # number of LoadLockedReq miss cycles
system.cpu0.dcache.LoadLockedReq_miss_latency::total    279937750                       # number of LoadLockedReq miss cycles
system.cpu0.dcache.StoreCondReq_miss_latency::cpu0.data       164000                       # number of StoreCondReq miss cycles
system.cpu0.dcache.StoreCondReq_miss_latency::total       164000                       # number of StoreCondReq miss cycles
system.cpu0.dcache.demand_miss_latency::cpu0.data   8522211202                       # number of demand (read+write) miss cycles
system.cpu0.dcache.demand_miss_latency::cpu1.data   9865105659                       # number of demand (read+write) miss cycles
system.cpu0.dcache.demand_miss_latency::total  18387316861                       # number of demand (read+write) miss cycles
system.cpu0.dcache.overall_miss_latency::cpu0.data   8522211202                       # number of overall miss cycles
system.cpu0.dcache.overall_miss_latency::cpu1.data   9865105659                       # number of overall miss cycles
system.cpu0.dcache.overall_miss_latency::total  18387316861                       # number of overall miss cycles
system.cpu0.dcache.ReadReq_accesses::cpu0.data     11944486                       # number of ReadReq accesses(hits+misses)
system.cpu0.dcache.ReadReq_accesses::cpu1.data     11568092                       # number of ReadReq accesses(hits+misses)
system.cpu0.dcache.ReadReq_accesses::total     23512578                       # number of ReadReq accesses(hits+misses)
system.cpu0.dcache.WriteReq_accesses::cpu0.data      9581911                       # number of WriteReq accesses(hits+misses)
system.cpu0.dcache.WriteReq_accesses::cpu1.data      9541704                       # number of WriteReq accesses(hits+misses)
system.cpu0.dcache.WriteReq_accesses::total     19123615                       # number of WriteReq accesses(hits+misses)
system.cpu0.dcache.SoftPFReq_accesses::cpu0.data       260773                       # number of SoftPFReq accesses(hits+misses)
system.cpu0.dcache.SoftPFReq_accesses::cpu1.data       250000                       # number of SoftPFReq accesses(hits+misses)
system.cpu0.dcache.SoftPFReq_accesses::total       510773                       # number of SoftPFReq accesses(hits+misses)
system.cpu0.dcache.LoadLockedReq_accesses::cpu0.data       242361                       # number of LoadLockedReq accesses(hits+misses)
system.cpu0.dcache.LoadLockedReq_accesses::cpu1.data       223713                       # number of LoadLockedReq accesses(hits+misses)
system.cpu0.dcache.LoadLockedReq_accesses::total       466074                       # number of LoadLockedReq accesses(hits+misses)
system.cpu0.dcache.StoreCondReq_accesses::cpu0.data       239353                       # number of StoreCondReq accesses(hits+misses)
[...]
system.l2c.ReadReq_avg_mshr_miss_latency::cpu1.data 70544.877827                       # average ReadReq mshr miss latency
system.l2c.ReadReq_avg_mshr_miss_latency::total 68590.245697                       # average ReadReq mshr miss latency
system.l2c.UpgradeReq_avg_mshr_miss_latency::cpu0.data 17807.427504                       # average UpgradeReq mshr miss latency
system.l2c.UpgradeReq_avg_mshr_miss_latency::cpu1.data 17821.146520                       # average UpgradeReq mshr miss latency
system.l2c.UpgradeReq_avg_mshr_miss_latency::total 17814.355531                       # average UpgradeReq mshr miss latency
system.l2c.SCUpgradeReq_avg_mshr_miss_latency::cpu0.data        67500                       # average SCUpgradeReq mshr miss latency
system.l2c.SCUpgradeReq_avg_mshr_miss_latency::total        67500                       # average SCUpgradeReq mshr miss latency
system.l2c.ReadExReq_avg_mshr_miss_latency::cpu0.data 64219.555845                       # average ReadExReq mshr miss latency
system.l2c.ReadExReq_avg_mshr_miss_latency::cpu1.data 63447.661929                       # average ReadExReq mshr miss latency
system.l2c.ReadExReq_avg_mshr_miss_latency::total 63776.377369                       # average ReadExReq mshr miss latency
system.l2c.demand_avg_mshr_miss_latency::cpu0.dtb.walker 74583.333333                       # average overall mshr miss latency
system.l2c.demand_avg_mshr_miss_latency::cpu0.itb.walker        70500                       # average overall mshr miss latency
system.l2c.demand_avg_mshr_miss_latency::cpu0.inst 67221.929282                       # average overall mshr miss latency
system.l2c.demand_avg_mshr_miss_latency::cpu0.data 64817.438245                       # average overall mshr miss latency
system.l2c.demand_avg_mshr_miss_latency::cpu1.dtb.walker        70000                       # average overall mshr miss latency
system.l2c.demand_avg_mshr_miss_latency::cpu1.inst 67488.164738                       # average overall mshr miss latency
system.l2c.demand_avg_mshr_miss_latency::cpu1.data 63995.741504                       # average overall mshr miss latency
system.l2c.demand_avg_mshr_miss_latency::total 64693.110291                       # average overall mshr miss latency
system.l2c.overall_avg_mshr_miss_latency::cpu0.dtb.walker 74583.333333                       # average overall mshr miss latency
system.l2c.overall_avg_mshr_miss_latency::cpu0.itb.walker        70500                       # average overall mshr miss latency
system.l2c.overall_avg_mshr_miss_latency::cpu0.inst 67221.929282                       # average overall mshr miss latency
system.l2c.overall_avg_mshr_miss_latency::cpu0.data 64817.438245                       # average overall mshr miss latency
system.l2c.overall_avg_mshr_miss_latency::cpu1.dtb.walker        70000                       # average overall mshr miss latency
system.l2c.overall_avg_mshr_miss_latency::cpu1.inst 67488.164738                       # average overall mshr miss latency
system.l2c.overall_avg_mshr_miss_latency::cpu1.data 63995.741504                       # average overall mshr miss latency
system.l2c.overall_avg_mshr_miss_latency::total 64693.110291                       # average overall mshr miss latency
system.l2c.ReadReq_avg_mshr_uncacheable_latency::cpu0.inst 60545.084239                       # average ReadReq mshr uncacheable latency
system.l2c.ReadReq_avg_mshr_uncacheable_latency::cpu0.data 167244.026591                       # average ReadReq mshr uncacheable latency
system.l2c.ReadReq_avg_mshr_uncacheable_latency::cpu1.data 179351.891094                       # average ReadReq mshr uncacheable latency
system.l2c.ReadReq_avg_mshr_uncacheable_latency::total 147970.993925                       # average ReadReq mshr uncacheable latency
system.l2c.WriteReq_avg_mshr_uncacheable_latency::cpu0.data 130046.334979                       # average WriteReq mshr uncacheable latency
system.l2c.WriteReq_avg_mshr_uncacheable_latency::cpu1.data 178017.166836                       # average WriteReq mshr uncacheable latency
system.l2c.WriteReq_avg_mshr_uncacheable_latency::total 150553.109372                       # average WriteReq mshr uncacheable latency
system.l2c.overall_avg_mshr_uncacheable_latency::cpu0.inst 60545.084239                       # average overall mshr uncacheable latency
system.l2c.overall_avg_mshr_uncacheable_latency::cpu0.data 148509.396818                       # average overall mshr uncacheable latency
system.l2c.overall_avg_mshr_uncacheable_latency::cpu1.data 178776.626841                       # average overall mshr uncacheable latency
system.l2c.overall_avg_mshr_uncacheable_latency::total 149022.543464                       # average overall mshr uncacheable latency
system.l2c.no_allocate_misses                       0                       # Number of misses that were no-allocate
system.membus.trans_dist::ReadReq               70492                       # Transaction distribution
system.membus.trans_dist::ReadResp              70492                       # Transaction distribution
system.membus.trans_dist::WriteReq              27594                       # Transaction distribution
system.membus.trans_dist::WriteResp             27594                       # Transaction distribution
system.membus.trans_dist::Writeback            116167                       # Transaction distribution
system.membus.trans_dist::WriteInvalidateReq        36224                       # Transaction distribution
system.membus.trans_dist::WriteInvalidateResp        36224                       # Transaction distribution
system.membus.trans_dist::UpgradeReq             4489                       # Transaction distribution
system.membus.trans_dist::SCUpgradeReq              2                       # Transaction distribution
system.membus.trans_dist::UpgradeResp            4491                       # Transaction distribution
system.membus.trans_dist::ReadExReq            126147                       # Transaction distribution
system.membus.trans_dist::ReadExResp           126147                       # Transaction distribution
system.membus.pkt_count_system.l2c.mem_side::system.bridge.slave       105478                       # Packet count per connected master and slave (bytes)
system.membus.pkt_count_system.l2c.mem_side::system.realview.nvmem.port           10                       # Packet count per connected master and slave (bytes)
system.membus.pkt_count_system.l2c.mem_side::system.realview.gic.pio         2122                       # Packet count per connected master and slave (bytes)
system.membus.pkt_count_system.l2c.mem_side::system.physmem.port       429068                       # Packet count per connected master and slave (bytes)
system.membus.pkt_count_system.l2c.mem_side::total       536678                       # Packet count per connected master and slave (bytes)
system.membus.pkt_count_system.iocache.mem_side::system.physmem.port       108887                       # Packet count per connected master and slave (bytes)
system.membus.pkt_count_system.iocache.mem_side::total       108887                       # Packet count per connected master and slave (bytes)
system.membus.pkt_count::total                 645565                       # Packet count per connected master and slave (bytes)
system.membus.pkt_size_system.l2c.mem_side::system.bridge.slave       159125                       # Cumulative packet size per connected master and slave (bytes)
system.membus.pkt_size_system.l2c.mem_side::system.realview.nvmem.port           20                       # Cumulative packet size per connected master and slave (bytes)
system.membus.pkt_size_system.l2c.mem_side::system.realview.gic.pio         4244                       # Cumulative packet size per connected master and slave (bytes)
system.membus.pkt_size_system.l2c.mem_side::system.physmem.port     15156092                       # Cumulative packet size per connected master and slave (bytes)
system.membus.pkt_size_system.l2c.mem_side::total     15319481                       # Cumulative packet size per connected master and slave (bytes)
system.membus.pkt_size_system.iocache.mem_side::system.physmem.port      4635456                       # Cumulative packet size per connected master and slave (bytes)
system.membus.pkt_size_system.iocache.mem_side::total      4635456                       # Cumulative packet size per connected master and slave (bytes)
system.membus.pkt_size::total                19954937                       # Cumulative packet size per connected master and slave (bytes)
system.membus.snoops                              498                       # Total snoops (count)
system.membus.snoop_fanout::samples            381147                       # Request fanout histogram
system.membus.snoop_fanout::mean                    1                       # Request fanout histogram
system.membus.snoop_fanout::stdev                   0                       # Request fanout histogram
system.membus.snoop_fanout::underflows              0      0.00%      0.00% # Request fanout histogram
system.membus.snoop_fanout::0                       0      0.00%      0.00% # Request fanout histogram
system.membus.snoop_fanout::1                  381147    100.00%    100.00% # Request fanout histogram
system.membus.snoop_fanout::2                       0      0.00%    100.00% # Request fanout histogram
system.membus.snoop_fanout::overflows               0      0.00%    100.00% # Request fanout histogram
system.membus.snoop_fanout::min_value               1                       # Request fanout histogram
system.membus.snoop_fanout::max_value               1                       # Request fanout histogram
system.membus.snoop_fanout::total              381147                       # Request fanout histogram
system.membus.reqLayer0.occupancy            90494500                       # Layer occupancy (ticks)
system.membus.reqLayer0.utilization               0.0                       # Layer utilization (%)
system.membus.reqLayer1.occupancy                7500                       # Layer occupancy (ticks)
system.membus.reqLayer1.utilization               0.0                       # Layer utilization (%)
system.membus.reqLayer2.occupancy             1721500                       # Layer occupancy (ticks)
system.membus.reqLayer2.utilization               0.0                       # Layer utilization (%)
system.membus.reqLayer5.occupancy           960656101                       # Layer occupancy (ticks)
system.membus.reqLayer5.utilization               0.0                       # Layer utilization (%)
system.membus.respLayer2.occupancy          947025657                       # Layer occupancy (ticks)
system.membus.respLayer2.utilization              0.0                       # Layer utilization (%)
system.membus.respLayer3.occupancy           37465995                       # Layer occupancy (ticks)
system.membus.respLayer3.utilization              0.0                       # Layer utilization (%)
system.realview.ethernet.descDMAReads               0                       # Number of descriptors the device read w/ DMA
system.realview.ethernet.descDMAWrites              0                       # Number of descriptors the device wrote w/ DMA
system.realview.ethernet.descDmaReadBytes            0                       # number of descriptor bytes read w/ DMA
system.realview.ethernet.descDmaWriteBytes            0                       # number of descriptor bytes write w/ DMA
system.realview.ethernet.postedSwi                  0                       # number of software interrupts posted to CPU
system.realview.ethernet.coalescedSwi             nan                       # average number of Swi's coalesced into each post
system.realview.ethernet.totalSwi                   0                       # total number of Swi written to ISR
system.realview.ethernet.postedRxIdle               0                       # number of rxIdle interrupts posted to CPU
system.realview.ethernet.coalescedRxIdle          nan                       # average number of RxIdle's coalesced into each post
system.realview.ethernet.totalRxIdle                0                       # total number of RxIdle written to ISR
system.realview.ethernet.postedRxOk                 0                       # number of RxOk interrupts posted to CPU
system.realview.ethernet.coalescedRxOk            nan                       # average number of RxOk's coalesced into each post
system.realview.ethernet.totalRxOk                  0                       # total number of RxOk written to ISR
system.realview.ethernet.postedRxDesc               0                       # number of RxDesc interrupts posted to CPU
system.realview.ethernet.coalescedRxDesc          nan                       # average number of RxDesc's coalesced into each post
system.realview.ethernet.totalRxDesc                0                       # total number of RxDesc written to ISR
system.realview.ethernet.postedTxOk                 0                       # number of TxOk interrupts posted to CPU
system.realview.ethernet.coalescedTxOk            nan                       # average number of TxOk's coalesced into each post
system.realview.ethernet.totalTxOk                  0                       # total number of TxOk written to ISR
system.realview.ethernet.postedTxIdle               0                       # number of TxIdle interrupts posted to CPU
system.realview.ethernet.coalescedTxIdle          nan                       # average number of TxIdle's coalesced into each post
system.realview.ethernet.totalTxIdle                0                       # total number of TxIdle written to ISR
system.realview.ethernet.postedTxDesc               0                       # number of TxDesc interrupts posted to CPU
system.realview.ethernet.coalescedTxDesc          nan                       # average number of TxDesc's coalesced into each post
system.realview.ethernet.totalTxDesc                0                       # total number of TxDesc written to ISR
system.realview.ethernet.postedRxOrn                0                       # number of RxOrn posted to CPU
system.realview.ethernet.coalescedRxOrn           nan                       # average number of RxOrn's coalesced into each post
system.realview.ethernet.totalRxOrn                 0                       # total number of RxOrn written to ISR
system.realview.ethernet.coalescedTotal           nan                       # average number of interrupts coalesced into each post
system.realview.ethernet.postedInterrupts            0                       # number of posts to CPU
system.realview.ethernet.droppedPackets             0                       # number of packets dropped
system.toL2Bus.trans_dist::ReadReq            2303937                       # Transaction distribution
system.toL2Bus.trans_dist::ReadResp           2303837                       # Transaction distribution
system.toL2Bus.trans_dist::WriteReq             27594                       # Transaction distribution
system.toL2Bus.trans_dist::WriteResp            27594                       # Transaction distribution
system.toL2Bus.trans_dist::Writeback           687030                       # Transaction distribution
system.toL2Bus.trans_dist::WriteInvalidateReq        36246                       # Transaction distribution
system.toL2Bus.trans_dist::UpgradeReq            2732                       # Transaction distribution
system.toL2Bus.trans_dist::SCUpgradeReq             2                       # Transaction distribution
system.toL2Bus.trans_dist::UpgradeResp           2734                       # Transaction distribution
system.toL2Bus.trans_dist::ReadExReq           295743                       # Transaction distribution
system.toL2Bus.trans_dist::ReadExResp          295743                       # Transaction distribution
system.toL2Bus.pkt_count_system.cpu0.icache.mem_side::system.l2c.cpu_side      3421816                       # Packet count per connected master and slave (bytes)
system.toL2Bus.pkt_count_system.cpu0.dcache.mem_side::system.l2c.cpu_side      2454612                       # Packet count per connected master and slave (bytes)
system.toL2Bus.pkt_count_system.cpu0.itb.walker.dma::system.l2c.cpu_side        18880                       # Packet count per connected master and slave (bytes)
system.toL2Bus.pkt_count_system.cpu0.dtb.walker.dma::system.l2c.cpu_side        35749                       # Packet count per connected master and slave (bytes)
system.toL2Bus.pkt_count::total               5931057                       # Packet count per connected master and slave (bytes)
system.toL2Bus.pkt_size_system.cpu0.icache.mem_side::system.l2c.cpu_side    108955768                       # Cumulative packet size per connected master and slave (bytes)
system.toL2Bus.pkt_size_system.cpu0.dcache.mem_side::system.l2c.cpu_side     96785921                       # Cumulative packet size per connected master and slave (bytes)
system.toL2Bus.pkt_size_system.cpu0.itb.walker.dma::system.l2c.cpu_side        27096                       # Cumulative packet size per connected master and slave (bytes)
system.toL2Bus.pkt_size_system.cpu0.dtb.walker.dma::system.l2c.cpu_side        50916                       # Cumulative packet size per connected master and slave (bytes)
system.toL2Bus.pkt_size::total              205819701                       # Cumulative packet size per connected master and slave (bytes)
system.toL2Bus.snoops                           52269                       # Total snoops (count)
system.toL2Bus.snoop_fanout::samples          3353284                       # Request fanout histogram
system.toL2Bus.snoop_fanout::mean            1.021354                       # Request fanout histogram
system.toL2Bus.snoop_fanout::stdev           0.144561                       # Request fanout histogram
system.toL2Bus.snoop_fanout::underflows             0      0.00%      0.00% # Request fanout histogram
system.toL2Bus.snoop_fanout::0                      0      0.00%      0.00% # Request fanout histogram
system.toL2Bus.snoop_fanout::1                3281678     97.86%     97.86% # Request fanout histogram
system.toL2Bus.snoop_fanout::2                  71606      2.14%    100.00% # Request fanout histogram
system.toL2Bus.snoop_fanout::overflows              0      0.00%    100.00% # Request fanout histogram
system.toL2Bus.snoop_fanout::min_value              1                       # Request fanout histogram
system.toL2Bus.snoop_fanout::max_value              2                       # Request fanout histogram
system.toL2Bus.snoop_fanout::total            3353284                       # Request fanout histogram
system.toL2Bus.reqLayer0.occupancy         2359229000                       # Layer occupancy (ticks)
system.toL2Bus.reqLayer0.utilization              0.1                       # Layer utilization (%)
system.toL2Bus.snoopLayer0.occupancy           201000                       # Layer occupancy (ticks)
system.toL2Bus.snoopLayer0.utilization            0.0                       # Layer utilization (%)
system.toL2Bus.respLayer0.occupancy        2567253247                       # Layer occupancy (ticks)
system.toL2Bus.respLayer0.utilization             0.1                       # Layer utilization (%)
system.toL2Bus.respLayer1.occupancy        1309775845                       # Layer occupancy (ticks)
system.toL2Bus.respLayer1.utilization             0.0                       # Layer utilization (%)
system.toL2Bus.respLayer2.occupancy          12106000                       # Layer occupancy (ticks)
system.toL2Bus.respLayer2.utilization             0.0                       # Layer utilization (%)
system.toL2Bus.respLayer3.occupancy          23020250                       # Layer occupancy (ticks)
system.toL2Bus.respLayer3.utilization             0.0                       # Layer utilization (%)

---------- End Simulation Statistics   ----------
