
---------- Begin Simulation Statistics ----------
sim_seconds                                  2.909645                       # Number of seconds simulated
sim_ticks                                2909644861500                       # Number of ticks simulated
final_tick                               2909644861500                       # Number of ticks from beginning of simulation (restored from checkpoints and never reset)
sim_freq                                 1000000000000                       # Frequency of simulated ticks
host_inst_rate                                 753896                       # Simulator instruction rate (inst/s)
host_op_rate                                   908960                       # Simulator op (including micro ops) rate (op/s)
host_tick_rate                            19506336140                       # Simulator tick rate (ticks/s)
host_mem_usage                                 580236                       # Number of bytes of host memory used
host_seconds                                   149.16                       # Real time elapsed on the host
sim_insts                                   112454211                       # Number of instructions simulated
sim_ops                                     135584166                       # Number of ops (including micro ops) simulated
system.voltage_domain.voltage                       1                       # Voltage in Volts
system.clk_domain.clock                          1000                       # Clock period in ticks
system.physmem.bytes_read::cpu0.dtb.walker          256                       # Number of bytes read from this memory
system.physmem.bytes_read::cpu0.inst           522464                       # Number of bytes read from this memory
system.physmem.bytes_read::cpu0.data          4660352                       # Number of bytes read from this memory
system.physmem.bytes_read::cpu1.dtb.walker          192                       # Number of bytes read from this memory
system.physmem.bytes_read::cpu1.itb.walker           64                       # Number of bytes read from this memory
system.physmem.bytes_read::cpu1.inst           664132                       # Number of bytes read from this memory
system.physmem.bytes_read::cpu1.data          4241316                       # Number of bytes read from this memory
system.physmem.bytes_read::realview.ide           960                       # Number of bytes read from this memory
system.physmem.bytes_read::total             10089736                       # Number of bytes read from this memory
system.physmem.bytes_inst_read::cpu0.inst       522464                       # Number of instructions bytes read from this memory
system.physmem.bytes_inst_read::cpu1.inst       664132                       # Number of instructions bytes read from this memory
system.physmem.bytes_inst_read::total         1186596                       # Number of instructions bytes read from this memory
system.physmem.bytes_written::writebacks      7511872                       # Number of bytes written to this memory
system.physmem.bytes_written::cpu0.data          8852                       # Number of bytes written to this memory
system.physmem.bytes_written::cpu1.data          8672                       # Number of bytes written to this memory
system.physmem.bytes_written::total           7529396                       # Number of bytes written to this memory
system.physmem.num_reads::cpu0.dtb.walker            4                       # Number of read requests responded to by this memory
system.physmem.num_reads::cpu0.inst             13451                       # Number of read requests responded to by this memory
system.physmem.num_reads::cpu0.data             73321                       # Number of read requests responded to by this memory
system.physmem.num_reads::cpu1.dtb.walker            3                       # Number of read requests responded to by this memory
system.physmem.num_reads::cpu1.itb.walker            1                       # Number of read requests responded to by this memory
system.physmem.num_reads::cpu1.inst             13543                       # Number of read requests responded to by this memory
system.physmem.num_reads::cpu1.data             66287                       # Number of read requests responded to by this memory
system.physmem.num_reads::realview.ide             15                       # Number of read requests responded to by this memory
system.physmem.num_reads::total                166625                       # Number of read requests responded to by this memory
system.physmem.num_writes::writebacks          117373                       # Number of write requests responded to by this memory
system.physmem.num_writes::cpu0.data             2213                       # Number of write requests responded to by this memory
system.physmem.num_writes::cpu1.data             2168                       # Number of write requests responded to by this memory
system.physmem.num_writes::total               121754                       # Number of write requests responded to by this memory
system.physmem.bw_read::cpu0.dtb.walker            88                       # Total read bandwidth from this memory (bytes/s)
system.physmem.bw_read::cpu0.inst              179563                       # Total read bandwidth from this memory (bytes/s)
system.physmem.bw_read::cpu0.data             1601691                       # Total read bandwidth from this memory (bytes/s)
system.physmem.bw_read::cpu1.dtb.walker            66                       # Total read bandwidth from this memory (bytes/s)
system.physmem.bw_read::cpu1.itb.walker            22                       # Total read bandwidth from this memory (bytes/s)
system.physmem.bw_read::cpu1.inst              228252                       # Total read bandwidth from this memory (bytes/s)
system.physmem.bw_read::cpu1.data             1457675                       # Total read bandwidth from this memory (bytes/s)
system.physmem.bw_read::realview.ide              330                       # Total read bandwidth from this memory (bytes/s)
system.physmem.bw_read::total                 3467686                       # Total read bandwidth from this memory (bytes/s)
system.physmem.bw_inst_read::cpu0.inst         179563                       # Instruction read bandwidth from this memory (bytes/s)
system.physmem.bw_inst_read::cpu1.inst         228252                       # Instruction read bandwidth from this memory (bytes/s)
system.physmem.bw_inst_read::total             407815                       # Instruction read bandwidth from this memory (bytes/s)
system.physmem.bw_write::writebacks           2581714                       # Write bandwidth from this memory (bytes/s)
system.physmem.bw_write::cpu0.data               3042                       # Write bandwidth from this memory (bytes/s)
system.physmem.bw_write::cpu1.data               2980                       # Write bandwidth from this memory (bytes/s)
system.physmem.bw_write::total                2587737                       # Write bandwidth from this memory (bytes/s)
system.physmem.bw_total::writebacks           2581714                       # Total bandwidth to/from this memory (bytes/s)
system.physmem.bw_total::cpu0.dtb.walker           88                       # Total bandwidth to/from this memory (bytes/s)
system.physmem.bw_total::cpu0.inst             179563                       # Total bandwidth to/from this memory (bytes/s)
system.physmem.bw_total::cpu0.data            1604733                       # Total bandwidth to/from this memory (bytes/s)
system.physmem.bw_total::cpu1.dtb.walker           66                       # Total bandwidth to/from this memory (bytes/s)
system.physmem.bw_total::cpu1.itb.walker           22                       # Total bandwidth to/from this memory (bytes/s)
system.physmem.bw_total::cpu1.inst             228252                       # Total bandwidth to/from this memory (bytes/s)
system.physmem.bw_total::cpu1.data            1460655                       # Total bandwidth to/from this memory (bytes/s)
system.physmem.bw_total::realview.ide             330                       # Total bandwidth to/from this memory (bytes/s)
system.physmem.bw_total::total                6055424                       # Total bandwidth to/from this memory (bytes/s)
system.physmem.readReqs                        166625                       # Number of read requests accepted
system.physmem.writeReqs                       121754                       # Number of write requests accepted
system.physmem.readBursts                      166625                       # Number of DRAM read bursts, including those serviced by the write queue
system.physmem.writeBursts                     121754                       # Number of DRAM write bursts, including those merged in the write queue
system.physmem.bytesReadDRAM                 10658176                       # Total number of bytes read from DRAM
system.physmem.bytesReadWrQ                      5824                       # Total number of bytes read from write queue
system.physmem.bytesWritten                   7541376                       # Total number of bytes written to DRAM
system.physmem.bytesReadSys                  10089736                       # Total read bytes from the system interface side
system.physmem.bytesWrittenSys                7529396                       # Total written bytes from the system interface side
system.physmem.servicedByWrQ                       91                       # Number of DRAM read bursts serviced by the write queue
system.physmem.mergedWrBursts                    3888                       # Number of DRAM write bursts merged with an existing one
system.physmem.neitherReadNorWriteReqs              0                       # Number of requests that are neither read nor write
system.physmem.perBankRdBursts::0               10080                       # Per bank write bursts
system.physmem.perBankRdBursts::1                9979                       # Per bank write bursts
system.physmem.perBankRdBursts::2               10697                       # Per bank write bursts
system.physmem.perBankRdBursts::3               10657                       # Per bank write bursts
system.physmem.perBankRdBursts::4               18793                       # Per bank write bursts
system.physmem.perBankRdBursts::5                9662                       # Per bank write bursts
system.physmem.perBankRdBursts::6                9670                       # Per bank write bursts
system.physmem.perBankRdBursts::7               10491                       # Per bank write bursts
system.physmem.perBankRdBursts::8                9280                       # Per bank write bursts
system.physmem.perBankRdBursts::9                9982                       # Per bank write bursts
system.physmem.perBankRdBursts::10               9231                       # Per bank write bursts
system.physmem.perBankRdBursts::11               8678                       # Per bank write bursts
system.physmem.perBankRdBursts::12               9823                       # Per bank write bursts
system.physmem.perBankRdBursts::13              10380                       # Per bank write bursts
system.physmem.perBankRdBursts::14               9718                       # Per bank write bursts
system.physmem.perBankRdBursts::15               9413                       # Per bank write bursts
system.physmem.perBankWrBursts::0                7393                       # Per bank write bursts
system.physmem.perBankWrBursts::1                7263                       # Per bank write bursts
system.physmem.perBankWrBursts::2                8284                       # Per bank write bursts
system.physmem.perBankWrBursts::3                8168                       # Per bank write bursts
system.physmem.perBankWrBursts::4                7485                       # Per bank write bursts
system.physmem.perBankWrBursts::5                7265                       # Per bank write bursts
system.physmem.perBankWrBursts::6                7108                       # Per bank write bursts
system.physmem.perBankWrBursts::7                7667                       # Per bank write bursts
system.physmem.perBankWrBursts::8                7080                       # Per bank write bursts
system.physmem.perBankWrBursts::9                7523                       # Per bank write bursts
system.physmem.perBankWrBursts::10               6694                       # Per bank write bursts
system.physmem.perBankWrBursts::11               6470                       # Per bank write bursts
system.physmem.perBankWrBursts::12               7527                       # Per bank write bursts
system.physmem.perBankWrBursts::13               7859                       # Per bank write bursts
system.physmem.perBankWrBursts::14               7260                       # Per bank write bursts
system.physmem.perBankWrBursts::15               6788                       # Per bank write bursts
system.physmem.numRdRetry                           0                       # Number of times read queue was full causing retry
system.physmem.numWrRetry                          15                       # Number of times write queue was full causing retry
system.physmem.totGap                    2909644504500                       # Total gap between requests
system.physmem.readPktSize::0                       0                       # Read request sizes (log2)
system.physmem.readPktSize::1                       0                       # Read request sizes (log2)
system.physmem.readPktSize::2                    9558                       # Read request sizes (log2)
system.physmem.readPktSize::3                      14                       # Read request sizes (log2)
system.physmem.readPktSize::4                       0                       # Read request sizes (log2)
system.physmem.readPktSize::5                       0                       # Read request sizes (log2)
system.physmem.readPktSize::6                  157053                       # Read request sizes (log2)
system.physmem.writePktSize::0                      0                       # Write request sizes (log2)
system.physmem.writePktSize::1                      0                       # Write request sizes (log2)
system.physmem.writePktSize::2                   4381                       # Write request sizes (log2)
system.physmem.writePktSize::3                      0                       # Write request sizes (log2)
system.physmem.writePktSize::4                      0                       # Write request sizes (log2)
system.physmem.writePktSize::5                      0                       # Write request sizes (log2)
system.physmem.writePktSize::6                 117373                       # Write request sizes (log2)
system.physmem.rdQLenPdf::0                    165652                       # What read queue length does an incoming req see
system.physmem.rdQLenPdf::1                       613                       # What read queue length does an incoming req see
system.physmem.rdQLenPdf::2                       257                       # What read queue length does an incoming req see
system.physmem.rdQLenPdf::3                         1                       # What read queue length does an incoming req see
system.physmem.rdQLenPdf::4                         1                       # What read queue length does an incoming req see
system.physmem.rdQLenPdf::5                         1                       # What read queue length does an incoming req see
system.physmem.rdQLenPdf::6                         1                       # What read queue length does an incoming req see
system.physmem.rdQLenPdf::7                         1                       # What read queue length does an incoming req see
system.physmem.rdQLenPdf::8                         1                       # What read queue length does an incoming req see
system.physmem.rdQLenPdf::9                         1                       # What read queue length does an incoming req see
system.physmem.rdQLenPdf::10                        1                       # What read queue length does an incoming req see
system.physmem.rdQLenPdf::11                        1                       # What read queue length does an incoming req see
system.physmem.rdQLenPdf::12                        1                       # What read queue length does an incoming req see
system.physmem.rdQLenPdf::13                        1                       # What read queue length does an incoming req see
system.physmem.rdQLenPdf::14                        1                       # What read queue length does an incoming req see
system.physmem.rdQLenPdf::15                        0                       # What read queue length does an incoming req see
system.physmem.rdQLenPdf::16                        0                       # What read queue length does an incoming req see
system.physmem.rdQLenPdf::17                        0                       # What read queue length does an incoming req see
system.physmem.rdQLenPdf::18                        0                       # What read queue length does an incoming req see
system.physmem.rdQLenPdf::19                        0                       # What read queue length does an incoming req see
system.physmem.rdQLenPdf::20                        0                       # What read queue length does an incoming req see
system.physmem.rdQLenPdf::21                        0                       # What read queue length does an incoming req see
system.physmem.rdQLenPdf::22                        0                       # What read queue length does an incoming req see
system.physmem.rdQLenPdf::23                        0                       # What read queue length does an incoming req see
system.physmem.rdQLenPdf::24                        0                       # What read queue length does an incoming req see
system.physmem.rdQLenPdf::25                        0                       # What read queue length does an incoming req see
system.physmem.rdQLenPdf::26                        0                       # What read queue length does an incoming req see
system.physmem.rdQLenPdf::27                        0                       # What read queue length does an incoming req see
system.physmem.rdQLenPdf::28                        0                       # What read queue length does an incoming req see
system.physmem.rdQLenPdf::29                        0                       # What read queue length does an incoming req see
system.physmem.rdQLenPdf::30                        0                       # What read queue length does an incoming req see
system.physmem.rdQLenPdf::31                        0                       # What read queue length does an incoming req see
system.physmem.wrQLenPdf::0                       202                       # What write queue length does an incoming req see
system.physmem.wrQLenPdf::1                       199                       # What write queue length does an incoming req see
system.physmem.wrQLenPdf::2                       189                       # What write queue length does an incoming req see
system.physmem.wrQLenPdf::3                       185                       # What write queue length does an incoming req see
system.physmem.wrQLenPdf::4                       184                       # What write queue length does an incoming req see
system.physmem.wrQLenPdf::5                       181                       # What write queue length does an incoming req see
system.physmem.wrQLenPdf::6                       180                       # What write queue length does an incoming req see
system.physmem.wrQLenPdf::7                       176                       # What write queue length does an incoming req see
system.physmem.wrQLenPdf::8                       175                       # What write queue length does an incoming req see
system.physmem.wrQLenPdf::9                       172                       # What write queue length does an incoming req see
system.physmem.wrQLenPdf::10                      170                       # What write queue length does an incoming req see
system.physmem.wrQLenPdf::11                      169                       # What write queue length does an incoming req see
system.physmem.wrQLenPdf::12                      166                       # What write queue length does an incoming req see
system.physmem.wrQLenPdf::13                      165                       # What write queue length does an incoming req see
system.physmem.wrQLenPdf::14                      163                       # What write queue length does an incoming req see
system.physmem.wrQLenPdf::15                     2058                       # What write queue length does an incoming req see
system.physmem.wrQLenPdf::16                     3141                       # What write queue length does an incoming req see
system.physmem.wrQLenPdf::17                     6917                       # What write queue length does an incoming req see
system.physmem.wrQLenPdf::18                     5826                       # What write queue length does an incoming req see
system.physmem.wrQLenPdf::19                     6675                       # What write queue length does an incoming req see
system.physmem.wrQLenPdf::20                     5907                       # What write queue length does an incoming req see
system.physmem.wrQLenPdf::21                     5719                       # What write queue length does an incoming req see
system.physmem.wrQLenPdf::22                     5940                       # What write queue length does an incoming req see
system.physmem.wrQLenPdf::23                     6538                       # What write queue length does an incoming req see
system.physmem.wrQLenPdf::24                     6287                       # What write queue length does an incoming req see
system.physmem.wrQLenPdf::25                     6797                       # What write queue length does an incoming req see
system.physmem.wrQLenPdf::26                     7698                       # What write queue length does an incoming req see
system.physmem.wrQLenPdf::27                     6609                       # What write queue length does an incoming req see
system.physmem.wrQLenPdf::28                     6903                       # What write queue length does an incoming req see
system.physmem.wrQLenPdf::29                     8144                       # What write queue length does an incoming req see
system.physmem.wrQLenPdf::30                     6721                       # What write queue length does an incoming req see
system.physmem.wrQLenPdf::31                     6396                       # What write queue length does an incoming req see
system.physmem.wrQLenPdf::32                     6477                       # What write queue length does an incoming req see
system.physmem.wrQLenPdf::33                     1189                       # What write queue length does an incoming req see
system.physmem.wrQLenPdf::34                      266                       # What write queue length does an incoming req see
system.physmem.wrQLenPdf::35                      224                       # What write queue length does an incoming req see
system.physmem.wrQLenPdf::36                      145                       # What write queue length does an incoming req see
system.physmem.wrQLenPdf::37                      192                       # What write queue length does an incoming req see
system.physmem.wrQLenPdf::38                      163                       # What write queue length does an incoming req see
system.physmem.wrQLenPdf::39                      135                       # What write queue length does an incoming req see
system.physmem.wrQLenPdf::40                      103                       # What write queue length does an incoming req see
system.physmem.wrQLenPdf::41                      159                       # What write queue length does an incoming req see
system.physmem.wrQLenPdf::42                      100                       # What write queue length does an incoming req see
system.physmem.wrQLenPdf::43                       68                       # What write queue length does an incoming req see
system.physmem.wrQLenPdf::44                      108                       # What write queue length does an incoming req see
system.physmem.wrQLenPdf::45                      118                       # What write queue length does an incoming req see
system.physmem.wrQLenPdf::46                      102                       # What write queue length does an incoming req see
system.physmem.wrQLenPdf::47                      142                       # What write queue length does an incoming req see
system.physmem.wrQLenPdf::48                      115                       # What write queue length does an incoming req see
system.physmem.wrQLenPdf::49                       95                       # What write queue length does an incoming req see
system.physmem.wrQLenPdf::50                      114                       # What write queue length does an incoming req see
system.physmem.wrQLenPdf::51                       91                       # What write queue length does an incoming req see
system.physmem.wrQLenPdf::52                       81                       # What write queue length does an incoming req see
system.physmem.wrQLenPdf::53                       88                       # What write queue length does an incoming req see
system.physmem.wrQLenPdf::54                       70                       # What write queue length does an incoming req see
system.physmem.wrQLenPdf::55                       48                       # What write queue length does an incoming req see
system.physmem.wrQLenPdf::56                       77                       # What write queue length does an incoming req see
system.physmem.wrQLenPdf::57                      115                       # What write queue length does an incoming req see
system.physmem.wrQLenPdf::58                       50                       # What write queue length does an incoming req see
system.physmem.wrQLenPdf::59                       31                       # What write queue length does an incoming req see
system.physmem.wrQLenPdf::60                       67                       # What write queue length does an incoming req see
system.physmem.wrQLenPdf::61                      118                       # What write queue length does an incoming req see
system.physmem.wrQLenPdf::62                       26                       # What write queue length does an incoming req see
system.physmem.wrQLenPdf::63                       37                       # What write queue length does an incoming req see
system.physmem.bytesPerActivate::samples        58581                       # Bytes accessed per row activation
system.physmem.bytesPerActivate::mean      310.672197                       # Bytes accessed per row activation
system.physmem.bytesPerActivate::gmean     183.145957                       # Bytes accessed per row activation
system.physmem.bytesPerActivate::stdev     330.231527                       # Bytes accessed per row activation
system.physmem.bytesPerActivate::0-127          21388     36.51%     36.51% # Bytes accessed per row activation
system.physmem.bytesPerActivate::128-255        14603     24.93%     61.44% # Bytes accessed per row activation
system.physmem.bytesPerActivate::256-383         5975     10.20%     71.64% # Bytes accessed per row activation
system.physmem.bytesPerActivate::384-511         3225      5.51%     77.14% # Bytes accessed per row activation
system.physmem.bytesPerActivate::512-639         2561      4.37%     81.51% # Bytes accessed per row activation
system.physmem.bytesPerActivate::640-767         1528      2.61%     84.12% # Bytes accessed per row activation
system.physmem.bytesPerActivate::768-895         1012      1.73%     85.85% # Bytes accessed per row activation
system.physmem.bytesPerActivate::896-1023         1135      1.94%     87.79% # Bytes accessed per row activation
system.physmem.bytesPerActivate::1024-1151         7154     12.21%    100.00% # Bytes accessed per row activation
system.physmem.bytesPerActivate::total          58581                       # Bytes accessed per row activation
system.physmem.rdPerTurnAround::samples          5570                       # Reads before turning the bus around for writes
system.physmem.rdPerTurnAround::mean        29.894255                       # Reads before turning the bus around for writes
system.physmem.rdPerTurnAround::stdev      552.382236                       # Reads before turning the bus around for writes
system.physmem.rdPerTurnAround::0-2047           5567     99.95%     99.95% # Reads before turning the bus around for writes
system.physmem.rdPerTurnAround::2048-4095            2      0.04%     99.98% # Reads before turning the bus around for writes
system.physmem.rdPerTurnAround::40960-43007            1      0.02%    100.00% # Reads before turning the bus around for writes
system.physmem.rdPerTurnAround::total            5570                       # Reads before turning the bus around for writes
system.physmem.wrPerTurnAround::samples          5570                       # Writes before turning the bus around for reads
system.physmem.wrPerTurnAround::mean        21.155117                       # Writes before turning the bus around for reads
system.physmem.wrPerTurnAround::gmean       18.796345                       # Writes before turning the bus around for reads
system.physmem.wrPerTurnAround::stdev       15.496905                       # Writes before turning the bus around for reads
system.physmem.wrPerTurnAround::0-3                17      0.31%      0.31% # Writes before turning the bus around for reads
system.physmem.wrPerTurnAround::4-7                 9      0.16%      0.47% # Writes before turning the bus around for reads
system.physmem.wrPerTurnAround::8-11                8      0.14%      0.61% # Writes before turning the bus around for reads
system.physmem.wrPerTurnAround::12-15              13      0.23%      0.84% # Writes before turning the bus around for reads
system.physmem.wrPerTurnAround::16-19            4758     85.42%     86.27% # Writes before turning the bus around for reads
system.physmem.wrPerTurnAround::20-23             105      1.89%     88.15% # Writes before turning the bus around for reads
system.physmem.wrPerTurnAround::24-27              66      1.18%     89.34% # Writes before turning the bus around for reads
system.physmem.wrPerTurnAround::28-31              70      1.26%     90.59% # Writes before turning the bus around for reads
system.physmem.wrPerTurnAround::32-35              40      0.72%     91.31% # Writes before turning the bus around for reads
system.physmem.wrPerTurnAround::36-39              17      0.31%     91.62% # Writes before turning the bus around for reads
system.physmem.wrPerTurnAround::40-43              48      0.86%     92.48% # Writes before turning the bus around for reads
system.physmem.wrPerTurnAround::44-47              10      0.18%     92.66% # Writes before turning the bus around for reads
system.physmem.wrPerTurnAround::48-51             152      2.73%     95.39% # Writes before turning the bus around for reads
system.physmem.wrPerTurnAround::52-55               8      0.14%     95.53% # Writes before turning the bus around for reads
system.physmem.wrPerTurnAround::56-59               5      0.09%     95.62% # Writes before turning the bus around for reads
system.physmem.wrPerTurnAround::60-63              10      0.18%     95.80% # Writes before turning the bus around for reads
system.physmem.wrPerTurnAround::64-67              62      1.11%     96.91% # Writes before turning the bus around for reads
system.physmem.wrPerTurnAround::68-71               9      0.16%     97.07% # Writes before turning the bus around for reads
system.physmem.wrPerTurnAround::72-75               1      0.02%     97.09% # Writes before turning the bus around for reads
system.physmem.wrPerTurnAround::76-79              27      0.48%     97.58% # Writes before turning the bus around for reads
system.physmem.wrPerTurnAround::80-83             105      1.89%     99.46% # Writes before turning the bus around for reads
system.physmem.wrPerTurnAround::84-87               1      0.02%     99.48% # Writes before turning the bus around for reads
system.physmem.wrPerTurnAround::88-91               2      0.04%     99.52% # Writes before turning the bus around for reads
system.physmem.wrPerTurnAround::108-111             2      0.04%     99.55% # Writes before turning the bus around for reads
system.physmem.wrPerTurnAround::112-115             1      0.02%     99.57% # Writes before turning the bus around for reads
system.physmem.wrPerTurnAround::124-127             1      0.02%     99.59% # Writes before turning the bus around for reads
system.physmem.wrPerTurnAround::128-131             4      0.07%     99.66% # Writes before turning the bus around for reads
system.physmem.wrPerTurnAround::136-139             2      0.04%     99.69% # Writes before turning the bus around for reads
system.physmem.wrPerTurnAround::140-143             1      0.02%     99.71% # Writes before turning the bus around for reads
system.physmem.wrPerTurnAround::144-147             7      0.13%     99.84% # Writes before turning the bus around for reads
system.physmem.wrPerTurnAround::156-159             1      0.02%     99.86% # Writes before turning the bus around for reads
system.physmem.wrPerTurnAround::160-163             2      0.04%     99.89% # Writes before turning the bus around for reads
system.physmem.wrPerTurnAround::176-179             5      0.09%     99.98% # Writes before turning the bus around for reads
system.physmem.wrPerTurnAround::200-203             1      0.02%    100.00% # Writes before turning the bus around for reads
system.physmem.wrPerTurnAround::total            5570                       # Writes before turning the bus around for reads
system.physmem.totQLat                     1610742500                       # Total ticks spent queuing
system.physmem.totMemAccLat                4733255000                       # Total ticks spent from burst creation until serviced by the DRAM
system.physmem.totBusLat                    832670000                       # Total ticks spent in databus transfers
system.physmem.avgQLat                        9672.15                       # Average queueing delay per DRAM burst
system.physmem.avgBusLat                      5000.00                       # Average bus latency per DRAM burst
system.physmem.avgMemAccLat                  28422.15                       # Average memory access latency per DRAM burst
system.physmem.avgRdBW                           3.66                       # Average DRAM read bandwidth in MiByte/s
system.physmem.avgWrBW                           2.59                       # Average achieved write bandwidth in MiByte/s
system.physmem.avgRdBWSys                        3.47                       # Average system read bandwidth in MiByte/s
system.physmem.avgWrBWSys                        2.59                       # Average system write bandwidth in MiByte/s
system.physmem.peakBW                        12800.00                       # Theoretical peak bandwidth in MiByte/s
system.physmem.busUtil                           0.05                       # Data bus utilization in percentage
system.physmem.busUtilRead                       0.03                       # Data bus utilization in percentage for reads
system.physmem.busUtilWrite                      0.02                       # Data bus utilization in percentage for writes
system.physmem.avgRdQLen                         1.00                       # Average read queue length when enqueuing
system.physmem.avgWrQLen                        12.25                       # Average write queue length when enqueuing
system.physmem.readRowHits                     136266                       # Number of row buffer hits during reads
system.physmem.writeRowHits                     89520                       # Number of row buffer hits during writes
system.physmem.readRowHitRate                   81.82                       # Row buffer hit rate for reads
system.physmem.writeRowHitRate                  75.95                       # Row buffer hit rate for writes
system.physmem.avgGap                     10089654.60                       # Average gap between requests
system.physmem.pageHitRate                      79.39                       # Row buffer hit rate, read and write combined
system.physmem_0.actEnergy                  230678280                       # Energy for activate commands per rank (pJ)
system.physmem_0.preEnergy                  125866125                       # Energy for precharge commands per rank (pJ)
system.physmem_0.readEnergy                 702226200                       # Energy for read commands per rank (pJ)
system.physmem_0.writeEnergy                392901840                       # Energy for write commands per rank (pJ)
system.physmem_0.refreshEnergy           190043786400                       # Energy for refresh commands per rank (pJ)
system.physmem_0.actBackEnergy            90291916755                       # Energy for active background per rank (pJ)
system.physmem_0.preBackEnergy           1666582969500                       # Energy for precharge background per rank (pJ)
system.physmem_0.totalEnergy             1948370345100                       # Total energy per rank (pJ)
system.physmem_0.averagePower              669.624992                       # Core power per rank (mW)
system.physmem_0.memoryStateTime::IDLE   2772326098500                       # Time in different power states
system.physmem_0.memoryStateTime::REF     97159400000                       # Time in different power states
system.physmem_0.memoryStateTime::PRE_PDN            0                       # Time in different power states
system.physmem_0.memoryStateTime::ACT     40158524000                       # Time in different power states
system.physmem_0.memoryStateTime::ACT_PDN            0                       # Time in different power states
system.physmem_1.actEnergy                  212194080                       # Energy for activate commands per rank (pJ)
system.physmem_1.preEnergy                  115780500                       # Energy for precharge commands per rank (pJ)
system.physmem_1.readEnergy                 596731200                       # Energy for read commands per rank (pJ)
system.physmem_1.writeEnergy                370662480                       # Energy for write commands per rank (pJ)
system.physmem_1.refreshEnergy           190043786400                       # Energy for refresh commands per rank (pJ)
system.physmem_1.actBackEnergy            88418921265                       # Energy for active background per rank (pJ)
system.physmem_1.preBackEnergy           1668225948000                       # Energy for precharge background per rank (pJ)
system.physmem_1.totalEnergy             1947984023925                       # Total energy per rank (pJ)
system.physmem_1.averagePower              669.492219                       # Core power per rank (mW)
system.physmem_1.memoryStateTime::IDLE   2775082980250                       # Time in different power states
system.physmem_1.memoryStateTime::REF     97159400000                       # Time in different power states
system.physmem_1.memoryStateTime::PRE_PDN            0                       # Time in different power states
system.physmem_1.memoryStateTime::ACT     37402333250                       # Time in different power states
system.physmem_1.memoryStateTime::ACT_PDN            0                       # Time in different power states
system.realview.nvmem.bytes_read::cpu0.inst           20                       # Number of bytes read from this memory
system.realview.nvmem.bytes_read::total            20                       # Number of bytes read from this memory
system.realview.nvmem.bytes_inst_read::cpu0.inst           20                       # Number of instructions bytes read from this memory
system.realview.nvmem.bytes_inst_read::total           20                       # Number of instructions bytes read from this memory
system.realview.nvmem.num_reads::cpu0.inst            5                       # Number of read requests responded to by this memory
system.realview.nvmem.num_reads::total              5                       # Number of read requests responded to by this memory
system.realview.nvmem.bw_read::cpu0.inst            7                       # Total read bandwidth from this memory (bytes/s)
system.realview.nvmem.bw_read::total                7                       # Total read bandwidth from this memory (bytes/s)
system.realview.nvmem.bw_inst_read::cpu0.inst            7                       # Instruction read bandwidth from this memory (bytes/s)
system.realview.nvmem.bw_inst_read::total            7                       # Instruction read bandwidth from this memory (bytes/s)
system.realview.nvmem.bw_total::cpu0.inst            7                       # Total bandwidth to/from this memory (bytes/s)
system.realview.nvmem.bw_total::total               7                       # Total bandwidth to/from this memory (bytes/s)
system.cf0.dma_read_full_pages                      0                       # Number of full page size DMA reads (not PRD).
system.cf0.dma_read_bytes                        1024                       # Number of bytes transfered via DMA reads (not PRD).
system.cf0.dma_read_txs                             1                       # Number of DMA read transactions (not PRD).
system.cf0.dma_write_full_pages                   540                       # Number of full page size DMA writes.
system.cf0.dma_write_bytes                    2318336                       # Number of bytes transfered via DMA writes.
system.cf0.dma_write_txs                          631                       # Number of DMA write transactions.
system.cpu_clk_domain.clock                       500                       # Clock period in ticks
system.cpu0.dstage2_mmu.stage2_tlb.walker.walks            0                       # Table walker walks requested
system.cpu0.dstage2_mmu.stage2_tlb.walker.walkRequestOrigin_Requested::Data            0                       # Table walker requests started/completed, data/inst
system.cpu0.dstage2_mmu.stage2_tlb.walker.walkRequestOrigin_Requested::Inst            0                       # Table walker requests started/completed, data/inst
system.cpu0.dstage2_mmu.stage2_tlb.walker.walkRequestOrigin_Requested::total            0                       # Table walker requests started/completed, data/inst
system.cpu0.dstage2_mmu.stage2_tlb.walker.walkRequestOrigin_Completed::Data            0                       # Table walker requests started/completed, data/inst
system.cpu0.dstage2_mmu.stage2_tlb.walker.walkRequestOrigin_Completed::Inst            0                       # Table walker requests started/completed, data/inst
system.cpu0.dstage2_mmu.stage2_tlb.walker.walkRequestOrigin_Completed::total            0                       # Table walker requests started/completed, data/inst
system.cpu0.dstage2_mmu.stage2_tlb.walker.walkRequestOrigin::total            0                       # Table walker requests started/completed, data/inst
system.cpu0.dstage2_mmu.stage2_tlb.inst_hits            0                       # ITB inst hits
system.cpu0.dstage2_mmu.stage2_tlb.inst_misses            0                       # ITB inst misses
system.cpu0.dstage2_mmu.stage2_tlb.read_hits            0                       # DTB read hits
system.cpu0.dstage2_mmu.stage2_tlb.read_misses            0                       # DTB read misses
system.cpu0.dstage2_mmu.stage2_tlb.write_hits            0                       # DTB write hits
system.cpu0.dstage2_mmu.stage2_tlb.write_misses            0                       # DTB write misses
system.cpu0.dstage2_mmu.stage2_tlb.flush_tlb            0                       # Number of times complete TLB was flushed
system.cpu0.dstage2_mmu.stage2_tlb.flush_tlb_mva            0                       # Number of times TLB was flushed by MVA
system.cpu0.dstage2_mmu.stage2_tlb.flush_tlb_mva_asid            0                       # Number of times TLB was flushed by MVA & ASID
system.cpu0.dstage2_mmu.stage2_tlb.flush_tlb_asid            0                       # Number of times TLB was flushed by ASID
system.cpu0.dstage2_mmu.stage2_tlb.flush_entries            0                       # Number of entries that have been flushed from TLB
system.cpu0.dstage2_mmu.stage2_tlb.align_faults            0                       # Number of TLB faults due to alignment restrictions
system.cpu0.dstage2_mmu.stage2_tlb.prefetch_faults            0                       # Number of TLB faults due to prefetch
system.cpu0.dstage2_mmu.stage2_tlb.domain_faults            0                       # Number of TLB faults due to domain restrictions
system.cpu0.dstage2_mmu.stage2_tlb.perms_faults            0                       # Number of TLB faults due to permissions restrictions
system.cpu0.dstage2_mmu.stage2_tlb.read_accesses            0                       # DTB read accesses
system.cpu0.dstage2_mmu.stage2_tlb.write_accesses            0                       # DTB write accesses
system.cpu0.dstage2_mmu.stage2_tlb.inst_accesses            0                       # ITB inst accesses
system.cpu0.dstage2_mmu.stage2_tlb.hits             0                       # DTB hits
system.cpu0.dstage2_mmu.stage2_tlb.misses            0                       # DTB misses
system.cpu0.dstage2_mmu.stage2_tlb.accesses            0                       # DTB accesses
system.cpu0.dtb.walker.walks                     6403                       # Table walker walks requested
system.cpu0.dtb.walker.walksShort                6403                       # Table walker walks initiated with short descriptors
system.cpu0.dtb.walker.walksShortTerminationLevel::Level1         1830                       # Level at which table walker walks with short descriptors terminate
system.cpu0.dtb.walker.walksShortTerminationLevel::Level2         4572                       # Level at which table walker walks with short descriptors terminate
system.cpu0.dtb.walker.walksSquashedBefore            1                       # Table walks squashed before starting
system.cpu0.dtb.walker.walkWaitTime::samples         6402                       # Table walker wait (enqueue to first request) latency
system.cpu0.dtb.walker.walkWaitTime::0           6402    100.00%    100.00% # Table walker wait (enqueue to first request) latency
system.cpu0.dtb.walker.walkWaitTime::total         6402                       # Table walker wait (enqueue to first request) latency
system.cpu0.dtb.walker.walkCompletionTime::samples         5332                       # Table walker service (enqueue to completion) latency
system.cpu0.dtb.walker.walkCompletionTime::mean 13399.287322                       # Table walker service (enqueue to completion) latency
system.cpu0.dtb.walker.walkCompletionTime::gmean 11603.034588                       # Table walker service (enqueue to completion) latency
system.cpu0.dtb.walker.walkCompletionTime::stdev  7407.871184                       # Table walker service (enqueue to completion) latency
system.cpu0.dtb.walker.walkCompletionTime::0-16383         4008     75.17%     75.17% # Table walker service (enqueue to completion) latency
system.cpu0.dtb.walker.walkCompletionTime::16384-32767         1320     24.76%     99.92% # Table walker service (enqueue to completion) latency
system.cpu0.dtb.walker.walkCompletionTime::131072-147455            4      0.08%    100.00% # Table walker service (enqueue to completion) latency
system.cpu0.dtb.walker.walkCompletionTime::total         5332                       # Table walker service (enqueue to completion) latency
system.cpu0.dtb.walker.walksPending::samples   2989035968                       # Table walker pending requests distribution
system.cpu0.dtb.walker.walksPending::mean     0.330748                       # Table walker pending requests distribution
system.cpu0.dtb.walker.walksPending::stdev     0.470482                       # Table walker pending requests distribution
system.cpu0.dtb.walker.walksPending::0     2000419000     66.93%     66.93% # Table walker pending requests distribution
system.cpu0.dtb.walker.walksPending::1      988616968     33.07%    100.00% # Table walker pending requests distribution
system.cpu0.dtb.walker.walksPending::total   2989035968                       # Table walker pending requests distribution
system.cpu0.dtb.walker.walkPageSizes::4K         3528     66.18%     66.18% # Table walker page sizes translated
system.cpu0.dtb.walker.walkPageSizes::1M         1803     33.82%    100.00% # Table walker page sizes translated
system.cpu0.dtb.walker.walkPageSizes::total         5331                       # Table walker page sizes translated
system.cpu0.dtb.walker.walkRequestOrigin_Requested::Data         6403                       # Table walker requests started/completed, data/inst
system.cpu0.dtb.walker.walkRequestOrigin_Requested::Inst            0                       # Table walker requests started/completed, data/inst
system.cpu0.dtb.walker.walkRequestOrigin_Requested::total         6403                       # Table walker requests started/completed, data/inst
system.cpu0.dtb.walker.walkRequestOrigin_Completed::Data         5331                       # Table walker requests started/completed, data/inst
system.cpu0.dtb.walker.walkRequestOrigin_Completed::Inst            0                       # Table walker requests started/completed, data/inst
system.cpu0.dtb.walker.walkRequestOrigin_Completed::total         5331                       # Table walker requests started/completed, data/inst
system.cpu0.dtb.walker.walkRequestOrigin::total        11734                       # Table walker requests started/completed, data/inst
system.cpu0.dtb.inst_hits                           0                       # ITB inst hits
system.cpu0.dtb.inst_misses                         0                       # ITB inst misses
system.cpu0.dtb.read_hits                    12042048                       # DTB read hits
system.cpu0.dtb.read_misses                      5594                       # DTB read misses
system.cpu0.dtb.write_hits                    9609454                       # DTB write hits
system.cpu0.dtb.write_misses                      809                       # DTB write misses
system.cpu0.dtb.flush_tlb                        2941                       # Number of times complete TLB was flushed
system.cpu0.dtb.flush_tlb_mva                     439                       # Number of times TLB was flushed by MVA
system.cpu0.dtb.flush_tlb_mva_asid                  0                       # Number of times TLB was flushed by MVA & ASID
system.cpu0.dtb.flush_tlb_asid                      0                       # Number of times TLB was flushed by ASID
system.cpu0.dtb.flush_entries                    3984                       # Number of entries that have been flushed from TLB
system.cpu0.dtb.align_faults                        0                       # Number of TLB faults due to alignment restrictions
system.cpu0.dtb.prefetch_faults                   860                       # Number of TLB faults due to prefetch
system.cpu0.dtb.domain_faults                       0                       # Number of TLB faults due to domain restrictions
system.cpu0.dtb.perms_faults                      217                       # Number of TLB faults due to permissions restrictions
system.cpu0.dtb.read_accesses                12047642                       # DTB read accesses
system.cpu0.dtb.write_accesses                9610263                       # DTB write accesses
system.cpu0.dtb.inst_accesses                       0                       # ITB inst accesses
system.cpu0.dtb.hits                         21651502                       # DTB hits
system.cpu0.dtb.misses                           6403                       # DTB misses
system.cpu0.dtb.accesses                     21657905                       # DTB accesses
system.cpu0.istage2_mmu.stage2_tlb.walker.walks            0                       # Table walker walks requested
system.cpu0.istage2_mmu.stage2_tlb.walker.walkRequestOrigin_Requested::Data            0                       # Table walker requests started/completed, data/inst
system.cpu0.istage2_mmu.stage2_tlb.walker.walkRequestOrigin_Requested::Inst            0                       # Table walker requests started/completed, data/inst
system.cpu0.istage2_mmu.stage2_tlb.walker.walkRequestOrigin_Requested::total            0                       # Table walker requests started/completed, data/inst
system.cpu0.istage2_mmu.stage2_tlb.walker.walkRequestOrigin_Completed::Data            0                       # Table walker requests started/completed, data/inst
system.cpu0.istage2_mmu.stage2_tlb.walker.walkRequestOrigin_Completed::Inst            0                       # Table walker requests started/completed, data/inst
system.cpu0.istage2_mmu.stage2_tlb.walker.walkRequestOrigin_Completed::total            0                       # Table walker requests started/completed, data/inst
system.cpu0.istage2_mmu.stage2_tlb.walker.walkRequestOrigin::total            0                       # Table walker requests started/completed, data/inst
system.cpu0.istage2_mmu.stage2_tlb.inst_hits            0                       # ITB inst hits
system.cpu0.istage2_mmu.stage2_tlb.inst_misses            0                       # ITB inst misses
system.cpu0.istage2_mmu.stage2_tlb.read_hits            0                       # DTB read hits
system.cpu0.istage2_mmu.stage2_tlb.read_misses            0                       # DTB read misses
system.cpu0.istage2_mmu.stage2_tlb.write_hits            0                       # DTB write hits
system.cpu0.istage2_mmu.stage2_tlb.write_misses            0                       # DTB write misses
system.cpu0.istage2_mmu.stage2_tlb.flush_tlb            0                       # Number of times complete TLB was flushed
system.cpu0.istage2_mmu.stage2_tlb.flush_tlb_mva            0                       # Number of times TLB was flushed by MVA
system.cpu0.istage2_mmu.stage2_tlb.flush_tlb_mva_asid            0                       # Number of times TLB was flushed by MVA & ASID
system.cpu0.istage2_mmu.stage2_tlb.flush_tlb_asid            0                       # Number of times TLB was flushed by ASID
system.cpu0.istage2_mmu.stage2_tlb.flush_entries            0                       # Number of entries that have been flushed from TLB
system.cpu0.istage2_mmu.stage2_tlb.align_faults            0                       # Number of TLB faults due to alignment restrictions
system.cpu0.istage2_mmu.stage2_tlb.prefetch_faults            0                       # Number of TLB faults due to prefetch
system.cpu0.istage2_mmu.stage2_tlb.domain_faults            0                       # Number of TLB faults due to domain restrictions
system.cpu0.istage2_mmu.stage2_tlb.perms_faults            0                       # Number of TLB faults due to permissions restrictions
system.cpu0.istage2_mmu.stage2_tlb.read_accesses            0                       # DTB read accesses
system.cpu0.istage2_mmu.stage2_tlb.write_accesses            0                       # DTB write accesses
system.cpu0.istage2_mmu.stage2_tlb.inst_accesses            0                       # ITB inst accesses
system.cpu0.istage2_mmu.stage2_tlb.hits             0                       # DTB hits
system.cpu0.istage2_mmu.stage2_tlb.misses            0                       # DTB misses
system.cpu0.istage2_mmu.stage2_tlb.accesses            0                       # DTB accesses
system.cpu0.itb.walker.walks                     3203                       # Table walker walks requested
system.cpu0.itb.walker.walksShort                3203                       # Table walker walks initiated with short descriptors
system.cpu0.itb.walker.walksShortTerminationLevel::Level1          686                       # Level at which table walker walks with short descriptors terminate
system.cpu0.itb.walker.walksShortTerminationLevel::Level2         2517                       # Level at which table walker walks with short descriptors terminate
system.cpu0.itb.walker.walkWaitTime::samples         3203                       # Table walker wait (enqueue to first request) latency
system.cpu0.itb.walker.walkWaitTime::0           3203    100.00%    100.00% # Table walker wait (enqueue to first request) latency
system.cpu0.itb.walker.walkWaitTime::total         3203                       # Table walker wait (enqueue to first request) latency
system.cpu0.itb.walker.walkCompletionTime::samples         2349                       # Table walker service (enqueue to completion) latency
system.cpu0.itb.walker.walkCompletionTime::mean 13262.452107                       # Table walker service (enqueue to completion) latency
system.cpu0.itb.walker.walkCompletionTime::gmean 11543.567684                       # Table walker service (enqueue to completion) latency
system.cpu0.itb.walker.walkCompletionTime::stdev  6519.168051                       # Table walker service (enqueue to completion) latency
system.cpu0.itb.walker.walkCompletionTime::4096-6143          600     25.54%     25.54% # Table walker service (enqueue to completion) latency
system.cpu0.itb.walker.walkCompletionTime::10240-12287          662     28.18%     53.72% # Table walker service (enqueue to completion) latency
system.cpu0.itb.walker.walkCompletionTime::12288-14335          191      8.13%     61.86% # Table walker service (enqueue to completion) latency
system.cpu0.itb.walker.walkCompletionTime::14336-16383          387     16.48%     78.33% # Table walker service (enqueue to completion) latency
system.cpu0.itb.walker.walkCompletionTime::16384-18431            3      0.13%     78.46% # Table walker service (enqueue to completion) latency
system.cpu0.itb.walker.walkCompletionTime::22528-24575          498     21.20%     99.66% # Table walker service (enqueue to completion) latency
system.cpu0.itb.walker.walkCompletionTime::24576-26623            8      0.34%    100.00% # Table walker service (enqueue to completion) latency
system.cpu0.itb.walker.walkCompletionTime::total         2349                       # Table walker service (enqueue to completion) latency
system.cpu0.itb.walker.walksPending::samples   2000380500                       # Table walker pending requests distribution
system.cpu0.itb.walker.walksPending::0     2000380500    100.00%    100.00% # Table walker pending requests distribution
system.cpu0.itb.walker.walksPending::total   2000380500                       # Table walker pending requests distribution
system.cpu0.itb.walker.walkPageSizes::4K         1663     70.80%     70.80% # Table walker page sizes translated
system.cpu0.itb.walker.walkPageSizes::1M          686     29.20%    100.00% # Table walker page sizes translated
system.cpu0.itb.walker.walkPageSizes::total         2349                       # Table walker page sizes translated
system.cpu0.itb.walker.walkRequestOrigin_Requested::Data            0                       # Table walker requests started/completed, data/inst
system.cpu0.itb.walker.walkRequestOrigin_Requested::Inst         3203                       # Table walker requests started/completed, data/inst
system.cpu0.itb.walker.walkRequestOrigin_Requested::total         3203                       # Table walker requests started/completed, data/inst
system.cpu0.itb.walker.walkRequestOrigin_Completed::Data            0                       # Table walker requests started/completed, data/inst
system.cpu0.itb.walker.walkRequestOrigin_Completed::Inst         2349                       # Table walker requests started/completed, data/inst
system.cpu0.itb.walker.walkRequestOrigin_Completed::total         2349                       # Table walker requests started/completed, data/inst
system.cpu0.itb.walker.walkRequestOrigin::total         5552                       # Table walker requests started/completed, data/inst
system.cpu0.itb.inst_hits                    56738612                       # ITB inst hits
system.cpu0.itb.inst_misses                      3203                       # ITB inst misses
system.cpu0.itb.read_hits                           0                       # DTB read hits
system.cpu0.itb.read_misses                         0                       # DTB read misses
system.cpu0.itb.write_hits                          0                       # DTB write hits
system.cpu0.itb.write_misses                        0                       # DTB write misses
system.cpu0.itb.flush_tlb                        2941                       # Number of times complete TLB was flushed
system.cpu0.itb.flush_tlb_mva                     439                       # Number of times TLB was flushed by MVA
system.cpu0.itb.flush_tlb_mva_asid                  0                       # Number of times TLB was flushed by MVA & ASID
system.cpu0.itb.flush_tlb_asid                      0                       # Number of times TLB was flushed by ASID
system.cpu0.itb.flush_entries                    2371                       # Number of entries that have been flushed from TLB
system.cpu0.itb.align_faults                        0                       # Number of TLB faults due to alignment restrictions
system.cpu0.itb.prefetch_faults                     0                       # Number of TLB faults due to prefetch
system.cpu0.itb.domain_faults                       0                       # Number of TLB faults due to domain restrictions
system.cpu0.itb.perms_faults                        0                       # Number of TLB faults due to permissions restrictions
system.cpu0.itb.read_accesses                       0                       # DTB read accesses
system.cpu0.itb.write_accesses                      0                       # DTB write accesses
system.cpu0.itb.inst_accesses                56741815                       # ITB inst accesses
system.cpu0.itb.hits                         56738612                       # DTB hits
system.cpu0.itb.misses                           3203                       # DTB misses
system.cpu0.itb.accesses                     56741815                       # DTB accesses
system.cpu0.numCycles                      2910043779                       # number of cpu cycles simulated
system.cpu0.numWorkItemsStarted                     0                       # number of work items this cpu started
system.cpu0.numWorkItemsCompleted                   0                       # number of work items this cpu completed
system.cpu0.kern.inst.arm                           0                       # number of arm instructions executed
system.cpu0.kern.inst.quiesce                    3033                       # number of quiesce instructions executed
system.cpu0.committedInsts                   55199902                       # Number of instructions committed
system.cpu0.committedOps                     66610456                       # Number of ops (including micro ops) committed
system.cpu0.num_int_alu_accesses             58846956                       # Number of integer alu accesses
system.cpu0.num_fp_alu_accesses                  5257                       # Number of float alu accesses
system.cpu0.num_func_calls                    4818664                       # number of times a function call or return occured
system.cpu0.num_conditional_control_insts      7556613                       # number of instructions that are conditional controls
system.cpu0.num_int_insts                    58846956                       # number of integer instructions
system.cpu0.num_fp_insts                         5257                       # number of float instructions
system.cpu0.num_int_register_reads          106933232                       # number of times the integer registers were read
system.cpu0.num_int_register_writes          40497320                       # number of times the integer registers were written
system.cpu0.num_fp_register_reads                3778                       # number of times the floating registers were read
system.cpu0.num_fp_register_writes               1482                       # number of times the floating registers were written
system.cpu0.num_cc_register_reads           240479401                       # number of times the CC registers were read
system.cpu0.num_cc_register_writes           25666284                       # number of times the CC registers were written
system.cpu0.num_mem_refs                     22274939                       # number of memory refs
system.cpu0.num_load_insts                   12196843                       # Number of load instructions
system.cpu0.num_store_insts                  10078096                       # Number of store instructions
system.cpu0.num_idle_cycles              2694635007.442764                       # Number of idle cycles
system.cpu0.num_busy_cycles              215408771.557236                       # Number of busy cycles
system.cpu0.not_idle_fraction                0.074023                       # Percentage of non-idle cycles
system.cpu0.idle_fraction                    0.925977                       # Percentage of idle cycles
system.cpu0.Branches                         12742817                       # Number of branches fetched
system.cpu0.op_class::No_OpClass                  133      0.00%      0.00% # Class of executed instruction
system.cpu0.op_class::IntAlu                 45792240     67.22%     67.22% # Class of executed instruction
system.cpu0.op_class::IntMult                   56099      0.08%     67.30% # Class of executed instruction
system.cpu0.op_class::IntDiv                        0      0.00%     67.30% # Class of executed instruction
system.cpu0.op_class::FloatAdd                      0      0.00%     67.30% # Class of executed instruction
system.cpu0.op_class::FloatCmp                      0      0.00%     67.30% # Class of executed instruction
system.cpu0.op_class::FloatCvt                      0      0.00%     67.30% # Class of executed instruction
system.cpu0.op_class::FloatMult                     0      0.00%     67.30% # Class of executed instruction
system.cpu0.op_class::FloatDiv                      0      0.00%     67.30% # Class of executed instruction
system.cpu0.op_class::FloatSqrt                     0      0.00%     67.30% # Class of executed instruction
system.cpu0.op_class::SimdAdd                       0      0.00%     67.30% # Class of executed instruction
system.cpu0.op_class::SimdAddAcc                    0      0.00%     67.30% # Class of executed instruction
system.cpu0.op_class::SimdAlu                       0      0.00%     67.30% # Class of executed instruction
system.cpu0.op_class::SimdCmp                       0      0.00%     67.30% # Class of executed instruction
system.cpu0.op_class::SimdCvt                       0      0.00%     67.30% # Class of executed instruction
system.cpu0.op_class::SimdMisc                      0      0.00%     67.30% # Class of executed instruction
system.cpu0.op_class::SimdMult                      0      0.00%     67.30% # Class of executed instruction
system.cpu0.op_class::SimdMultAcc                   0      0.00%     67.30% # Class of executed instruction
system.cpu0.op_class::SimdShift                     0      0.00%     67.30% # Class of executed instruction
system.cpu0.op_class::SimdShiftAcc                  0      0.00%     67.30% # Class of executed instruction
system.cpu0.op_class::SimdSqrt                      0      0.00%     67.30% # Class of executed instruction
system.cpu0.op_class::SimdFloatAdd                  0      0.00%     67.30% # Class of executed instruction
system.cpu0.op_class::SimdFloatAlu                  0      0.00%     67.30% # Class of executed instruction
system.cpu0.op_class::SimdFloatCmp                  0      0.00%     67.30% # Class of executed instruction
system.cpu0.op_class::SimdFloatCvt                  0      0.00%     67.30% # Class of executed instruction
system.cpu0.op_class::SimdFloatDiv                  0      0.00%     67.30% # Class of executed instruction
system.cpu0.op_class::SimdFloatMisc              3963      0.01%     67.30% # Class of executed instruction
system.cpu0.op_class::SimdFloatMult                 0      0.00%     67.30% # Class of executed instruction
system.cpu0.op_class::SimdFloatMultAcc              0      0.00%     67.30% # Class of executed instruction
system.cpu0.op_class::SimdFloatSqrt                 0      0.00%     67.30% # Class of executed instruction
system.cpu0.op_class::MemRead                12196843     17.90%     85.21% # Class of executed instruction
system.cpu0.op_class::MemWrite               10078096     14.79%    100.00% # Class of executed instruction
system.cpu0.op_class::IprAccess                     0      0.00%    100.00% # Class of executed instruction
system.cpu0.op_class::InstPrefetch                  0      0.00%    100.00% # Class of executed instruction
system.cpu0.op_class::total                  68127374                       # Class of executed instruction
system.cpu0.dcache.tags.replacements           819099                       # number of replacements
system.cpu0.dcache.tags.tagsinuse          511.702232                       # Cycle average of tags in use
system.cpu0.dcache.tags.total_refs           43234609                       # Total number of references to valid blocks.
system.cpu0.dcache.tags.sampled_refs           819611                       # Sample count of references to valid blocks.
system.cpu0.dcache.tags.avg_refs            52.750157                       # Average number of references to valid blocks.
system.cpu0.dcache.tags.warmup_cycle       1736913500                       # Cycle when the warmup percentage was hit.
system.cpu0.dcache.tags.occ_blocks::cpu0.data    43.298558                       # Average occupied blocks per requestor
system.cpu0.dcache.tags.occ_blocks::cpu1.data   468.403674                       # Average occupied blocks per requestor
system.cpu0.dcache.tags.occ_percent::cpu0.data     0.084567                       # Average percentage of cache occupancy
system.cpu0.dcache.tags.occ_percent::cpu1.data     0.914851                       # Average percentage of cache occupancy
system.cpu0.dcache.tags.occ_percent::total     0.999418                       # Average percentage of cache occupancy
system.cpu0.dcache.tags.occ_task_id_blocks::1024          512                       # Occupied blocks per task id
system.cpu0.dcache.tags.age_task_id_blocks_1024::0           59                       # Occupied blocks per task id
system.cpu0.dcache.tags.age_task_id_blocks_1024::1          344                       # Occupied blocks per task id
system.cpu0.dcache.tags.age_task_id_blocks_1024::2          107                       # Occupied blocks per task id
system.cpu0.dcache.tags.age_task_id_blocks_1024::3            2                       # Occupied blocks per task id
system.cpu0.dcache.tags.occ_task_id_percent::1024            1                       # Percentage of cache occupancy per task id
system.cpu0.dcache.tags.tag_accesses        177105423                       # Number of tag accesses
system.cpu0.dcache.tags.data_accesses       177105423                       # Number of data accesses
system.cpu0.dcache.ReadReq_hits::cpu0.data     11354436                       # number of ReadReq hits
system.cpu0.dcache.ReadReq_hits::cpu1.data     11757578                       # number of ReadReq hits
system.cpu0.dcache.ReadReq_hits::total       23112014                       # number of ReadReq hits
system.cpu0.dcache.WriteReq_hits::cpu0.data      9226475                       # number of WriteReq hits
system.cpu0.dcache.WriteReq_hits::cpu1.data      9597217                       # number of WriteReq hits
system.cpu0.dcache.WriteReq_hits::total      18823692                       # number of WriteReq hits
system.cpu0.dcache.SoftPFReq_hits::cpu0.data       190286                       # number of SoftPFReq hits
system.cpu0.dcache.SoftPFReq_hits::cpu1.data       202415                       # number of SoftPFReq hits
system.cpu0.dcache.SoftPFReq_hits::total       392701                       # number of SoftPFReq hits
system.cpu0.dcache.LoadLockedReq_hits::cpu0.data       213920                       # number of LoadLockedReq hits
system.cpu0.dcache.LoadLockedReq_hits::cpu1.data       229309                       # number of LoadLockedReq hits
system.cpu0.dcache.LoadLockedReq_hits::total       443229                       # number of LoadLockedReq hits
system.cpu0.dcache.StoreCondReq_hits::cpu0.data       221967                       # number of StoreCondReq hits
system.cpu0.dcache.StoreCondReq_hits::cpu1.data       238239                       # number of StoreCondReq hits
system.cpu0.dcache.StoreCondReq_hits::total       460206                       # number of StoreCondReq hits
system.cpu0.dcache.demand_hits::cpu0.data     20580911                       # number of demand (read+write) hits
system.cpu0.dcache.demand_hits::cpu1.data     21354795                       # number of demand (read+write) hits
system.cpu0.dcache.demand_hits::total        41935706                       # number of demand (read+write) hits
system.cpu0.dcache.overall_hits::cpu0.data     20771197                       # number of overall hits
system.cpu0.dcache.overall_hits::cpu1.data     21557210                       # number of overall hits
system.cpu0.dcache.overall_hits::total       42328407                       # number of overall hits
system.cpu0.dcache.ReadReq_misses::cpu0.data       199328                       # number of ReadReq misses
system.cpu0.dcache.ReadReq_misses::cpu1.data       200534                       # number of ReadReq misses
system.cpu0.dcache.ReadReq_misses::total       399862                       # number of ReadReq misses
system.cpu0.dcache.WriteReq_misses::cpu0.data       149618                       # number of WriteReq misses
system.cpu0.dcache.WriteReq_misses::cpu1.data       149039                       # number of WriteReq misses
system.cpu0.dcache.WriteReq_misses::total       298657                       # number of WriteReq misses
system.cpu0.dcache.SoftPFReq_misses::cpu0.data        58774                       # number of SoftPFReq misses
system.cpu0.dcache.SoftPFReq_misses::cpu1.data        59550                       # number of SoftPFReq misses
system.cpu0.dcache.SoftPFReq_misses::total       118324                       # number of SoftPFReq misses
system.cpu0.dcache.LoadLockedReq_misses::cpu0.data        10841                       # number of LoadLockedReq misses
system.cpu0.dcache.LoadLockedReq_misses::cpu1.data        11919                       # number of LoadLockedReq misses
system.cpu0.dcache.LoadLockedReq_misses::total        22760                       # number of LoadLockedReq misses
system.cpu0.dcache.StoreCondReq_misses::cpu1.data            2                       # number of StoreCondReq misses
system.cpu0.dcache.StoreCondReq_misses::total            2                       # number of StoreCondReq misses
system.cpu0.dcache.demand_misses::cpu0.data       348946                       # number of demand (read+write) misses
system.cpu0.dcache.demand_misses::cpu1.data       349573                       # number of demand (read+write) misses
system.cpu0.dcache.demand_misses::total        698519                       # number of demand (read+write) misses
system.cpu0.dcache.overall_misses::cpu0.data       407720                       # number of overall misses
system.cpu0.dcache.overall_misses::cpu1.data       409123                       # number of overall misses
system.cpu0.dcache.overall_misses::total       816843                       # number of overall misses
system.cpu0.dcache.ReadReq_miss_latency::cpu0.data   3302461000                       # number of ReadReq miss cycles
system.cpu0.dcache.ReadReq_miss_latency::cpu1.data   3180866500                       # number of ReadReq miss cycles
system.cpu0.dcache.ReadReq_miss_latency::total   6483327500                       # number of ReadReq miss cycles
system.cpu0.dcache.WriteReq_miss_latency::cpu0.data   9863039500                       # number of WriteReq miss cycles
system.cpu0.dcache.WriteReq_miss_latency::cpu1.data   9227377000                       # number of WriteReq miss cycles
system.cpu0.dcache.WriteReq_miss_latency::total  19090416500                       # number of WriteReq miss cycles
system.cpu0.dcache.LoadLockedReq_miss_latency::cpu0.data    137120000                       # number of LoadLockedReq miss cycles
system.cpu0.dcache.LoadLockedReq_miss_latency::cpu1.data    157150000                       # number of LoadLockedReq miss cycles
system.cpu0.dcache.LoadLockedReq_miss_latency::total    294270000                       # number of LoadLockedReq miss cycles
system.cpu0.dcache.StoreCondReq_miss_latency::cpu1.data       164000                       # number of StoreCondReq miss cycles
system.cpu0.dcache.StoreCondReq_miss_latency::total       164000                       # number of StoreCondReq miss cycles
system.cpu0.dcache.demand_miss_latency::cpu0.data  13165500500                       # number of demand (read+write) miss cycles
system.cpu0.dcache.demand_miss_latency::cpu1.data  12408243500                       # number of demand (read+write) miss cycles
system.cpu0.dcache.demand_miss_latency::total  25573744000                       # number of demand (read+write) miss cycles
system.cpu0.dcache.overall_miss_latency::cpu0.data  13165500500                       # number of overall miss cycles
system.cpu0.dcache.overall_miss_latency::cpu1.data  12408243500                       # number of overall miss cycles
system.cpu0.dcache.overall_miss_latency::total  25573744000                       # number of overall miss cycles
system.cpu0.dcache.ReadReq_accesses::cpu0.data     11553764                       # number of ReadReq accesses(hits+misses)
system.cpu0.dcache.ReadReq_accesses::cpu1.data     11958112                       # number of ReadReq accesses(hits+misses)
system.cpu0.dcache.ReadReq_accesses::total     23511876                       # number of ReadReq accesses(hits+misses)
system.cpu0.dcache.WriteReq_accesses::cpu0.data      9376093                       # number of WriteReq accesses(hits+misses)
system.cpu0.dcache.WriteReq_accesses::cpu1.data      9746256                       # number of WriteReq accesses(hits+misses)
system.cpu0.dcache.WriteReq_accesses::total     19122349                       # number of WriteReq accesses(hits+misses)
system.cpu0.dcache.SoftPFReq_accesses::cpu0.data       249060                       # number of SoftPFReq accesses(hits+misses)
system.cpu0.dcache.SoftPFReq_accesses::cpu1.data       261965                       # number of SoftPFReq accesses(hits+misses)
system.cpu0.dcache.SoftPFReq_accesses::total       511025                       # number of SoftPFReq accesses(hits+misses)
system.cpu0.dcache.LoadLockedReq_accesses::cpu0.data       224761                       # number of LoadLockedReq accesses(hits+misses)
system.cpu0.dcache.LoadLockedReq_accesses::cpu1.data       241228                       # number of LoadLockedReq accesses(hits+misses)
[...]
system.l2c.overall_avg_mshr_miss_latency::cpu0.dtb.walker       122625                       # average overall mshr miss latency
system.l2c.overall_avg_mshr_miss_latency::cpu0.inst 120592.049674                       # average overall mshr miss latency
system.l2c.overall_avg_mshr_miss_latency::cpu0.data 117291.892331                       # average overall mshr miss latency
system.l2c.overall_avg_mshr_miss_latency::cpu1.dtb.walker 122833.333333                       # average overall mshr miss latency
system.l2c.overall_avg_mshr_miss_latency::cpu1.itb.walker       123000                       # average overall mshr miss latency
system.l2c.overall_avg_mshr_miss_latency::cpu1.inst 120894.915421                       # average overall mshr miss latency
system.l2c.overall_avg_mshr_miss_latency::cpu1.data 117668.756601                       # average overall mshr miss latency
system.l2c.overall_avg_mshr_miss_latency::total 117843.801471                       # average overall mshr miss latency
system.l2c.ReadReq_avg_mshr_uncacheable_latency::cpu0.inst 113966.430469                       # average ReadReq mshr uncacheable latency
system.l2c.ReadReq_avg_mshr_uncacheable_latency::cpu0.data 190724.666667                       # average ReadReq mshr uncacheable latency
system.l2c.ReadReq_avg_mshr_uncacheable_latency::cpu1.inst 114532.869411                       # average ReadReq mshr uncacheable latency
system.l2c.ReadReq_avg_mshr_uncacheable_latency::cpu1.data 187626.471682                       # average ReadReq mshr uncacheable latency
system.l2c.ReadReq_avg_mshr_uncacheable_latency::total 172283.466135                       # average ReadReq mshr uncacheable latency
system.l2c.overall_avg_mshr_uncacheable_latency::cpu0.inst 113966.430469                       # average overall mshr uncacheable latency
system.l2c.overall_avg_mshr_uncacheable_latency::cpu0.data 100770.341670                       # average overall mshr uncacheable latency
system.l2c.overall_avg_mshr_uncacheable_latency::cpu1.inst 114532.869411                       # average overall mshr uncacheable latency
system.l2c.overall_avg_mshr_uncacheable_latency::cpu1.data 99809.341728                       # average overall mshr uncacheable latency
system.l2c.overall_avg_mshr_uncacheable_latency::total 102125.551669                       # average overall mshr uncacheable latency
system.membus.trans_dist::ReadReq               40160                       # Transaction distribution
system.membus.trans_dist::ReadResp              70546                       # Transaction distribution
system.membus.trans_dist::WriteReq              27589                       # Transaction distribution
system.membus.trans_dist::WriteResp             27589                       # Transaction distribution
system.membus.trans_dist::WritebackDirty       117373                       # Transaction distribution
system.membus.trans_dist::CleanEvict             6607                       # Transaction distribution
system.membus.trans_dist::UpgradeReq             4497                       # Transaction distribution
system.membus.trans_dist::SCUpgradeReq              2                       # Transaction distribution
system.membus.trans_dist::UpgradeResp               2                       # Transaction distribution
system.membus.trans_dist::ReadExReq            127157                       # Transaction distribution
system.membus.trans_dist::ReadExResp           127157                       # Transaction distribution
system.membus.trans_dist::ReadSharedReq         30386                       # Transaction distribution
system.membus.trans_dist::InvalidateReq         36224                       # Transaction distribution
system.membus.pkt_count_system.l2c.mem_side::system.bridge.slave       105478                       # Packet count per connected master and slave (bytes)
system.membus.pkt_count_system.l2c.mem_side::system.realview.nvmem.port           10                       # Packet count per connected master and slave (bytes)
system.membus.pkt_count_system.l2c.mem_side::system.realview.gic.pio         2104                       # Packet count per connected master and slave (bytes)
system.membus.pkt_count_system.l2c.mem_side::system.physmem.port       434320                       # Packet count per connected master and slave (bytes)
system.membus.pkt_count_system.l2c.mem_side::total       541912                       # Packet count per connected master and slave (bytes)
system.membus.pkt_count_system.iocache.mem_side::system.physmem.port        72885                       # Packet count per connected master and slave (bytes)
system.membus.pkt_count_system.iocache.mem_side::total        72885                       # Packet count per connected master and slave (bytes)
system.membus.pkt_count::total                 614797                       # Packet count per connected master and slave (bytes)
system.membus.pkt_size_system.l2c.mem_side::system.bridge.slave       159125                       # Cumulative packet size per connected master and slave (bytes)
system.membus.pkt_size_system.l2c.mem_side::system.realview.nvmem.port           20                       # Cumulative packet size per connected master and slave (bytes)
system.membus.pkt_size_system.l2c.mem_side::system.realview.gic.pio         4208                       # Cumulative packet size per connected master and slave (bytes)
system.membus.pkt_size_system.l2c.mem_side::system.physmem.port     15302012                       # Cumulative packet size per connected master and slave (bytes)
system.membus.pkt_size_system.l2c.mem_side::total     15465365                       # Cumulative packet size per connected master and slave (bytes)
system.membus.pkt_size_system.iocache.mem_side::system.physmem.port      2317120                       # Cumulative packet size per connected master and slave (bytes)
system.membus.pkt_size_system.iocache.mem_side::total      2317120                       # Cumulative packet size per connected master and slave (bytes)
system.membus.pkt_size::total                17782485                       # Cumulative packet size per connected master and slave (bytes)
system.membus.snoops                              492                       # Total snoops (count)
system.membus.snoop_fanout::samples            390010                       # Request fanout histogram
system.membus.snoop_fanout::mean                    1                       # Request fanout histogram
system.membus.snoop_fanout::stdev                   0                       # Request fanout histogram
system.membus.snoop_fanout::underflows              0      0.00%      0.00% # Request fanout histogram
system.membus.snoop_fanout::0                       0      0.00%      0.00% # Request fanout histogram
system.membus.snoop_fanout::1                  390010    100.00%    100.00% # Request fanout histogram
system.membus.snoop_fanout::2                       0      0.00%    100.00% # Request fanout histogram
system.membus.snoop_fanout::overflows               0      0.00%    100.00% # Request fanout histogram
system.membus.snoop_fanout::min_value               1                       # Request fanout histogram
system.membus.snoop_fanout::max_value               1                       # Request fanout histogram
system.membus.snoop_fanout::total              390010                       # Request fanout histogram
system.membus.reqLayer0.occupancy            90443000                       # Layer occupancy (ticks)
system.membus.reqLayer0.utilization               0.0                       # Layer utilization (%)
system.membus.reqLayer1.occupancy                7500                       # Layer occupancy (ticks)
system.membus.reqLayer1.utilization               0.0                       # Layer utilization (%)
system.membus.reqLayer2.occupancy             1721000                       # Layer occupancy (ticks)
system.membus.reqLayer2.utilization               0.0                       # Layer utilization (%)
system.membus.reqLayer5.occupancy           823181865                       # Layer occupancy (ticks)
system.membus.reqLayer5.utilization               0.0                       # Layer utilization (%)
system.membus.respLayer2.occupancy          943214000                       # Layer occupancy (ticks)
system.membus.respLayer2.utilization              0.0                       # Layer utilization (%)
system.membus.respLayer3.occupancy            1187123                       # Layer occupancy (ticks)
system.membus.respLayer3.utilization              0.0                       # Layer utilization (%)
system.realview.dcc.osc_cpu.clock               16667                       # Clock period in ticks
system.realview.dcc.osc_ddr.clock               25000                       # Clock period in ticks
system.realview.dcc.osc_hsbm.clock              25000                       # Clock period in ticks
system.realview.dcc.osc_pxl.clock               42105                       # Clock period in ticks
system.realview.dcc.osc_smb.clock               20000                       # Clock period in ticks
system.realview.dcc.osc_sys.clock               16667                       # Clock period in ticks
system.realview.ethernet.descDMAReads               0                       # Number of descriptors the device read w/ DMA
system.realview.ethernet.descDMAWrites              0                       # Number of descriptors the device wrote w/ DMA
system.realview.ethernet.descDmaReadBytes            0                       # number of descriptor bytes read w/ DMA
system.realview.ethernet.descDmaWriteBytes            0                       # number of descriptor bytes write w/ DMA
system.realview.ethernet.postedSwi                  0                       # number of software interrupts posted to CPU
system.realview.ethernet.coalescedSwi             nan                       # average number of Swi's coalesced into each post
system.realview.ethernet.totalSwi                   0                       # total number of Swi written to ISR
system.realview.ethernet.postedRxIdle               0                       # number of rxIdle interrupts posted to CPU
system.realview.ethernet.coalescedRxIdle          nan                       # average number of RxIdle's coalesced into each post
system.realview.ethernet.totalRxIdle                0                       # total number of RxIdle written to ISR
system.realview.ethernet.postedRxOk                 0                       # number of RxOk interrupts posted to CPU
system.realview.ethernet.coalescedRxOk            nan                       # average number of RxOk's coalesced into each post
system.realview.ethernet.totalRxOk                  0                       # total number of RxOk written to ISR
system.realview.ethernet.postedRxDesc               0                       # number of RxDesc interrupts posted to CPU
system.realview.ethernet.coalescedRxDesc          nan                       # average number of RxDesc's coalesced into each post
system.realview.ethernet.totalRxDesc                0                       # total number of RxDesc written to ISR
system.realview.ethernet.postedTxOk                 0                       # number of TxOk interrupts posted to CPU
system.realview.ethernet.coalescedTxOk            nan                       # average number of TxOk's coalesced into each post
system.realview.ethernet.totalTxOk                  0                       # total number of TxOk written to ISR
system.realview.ethernet.postedTxIdle               0                       # number of TxIdle interrupts posted to CPU
system.realview.ethernet.coalescedTxIdle          nan                       # average number of TxIdle's coalesced into each post
system.realview.ethernet.totalTxIdle                0                       # total number of TxIdle written to ISR
system.realview.ethernet.postedTxDesc               0                       # number of TxDesc interrupts posted to CPU
system.realview.ethernet.coalescedTxDesc          nan                       # average number of TxDesc's coalesced into each post
system.realview.ethernet.totalTxDesc                0                       # total number of TxDesc written to ISR
system.realview.ethernet.postedRxOrn                0                       # number of RxOrn posted to CPU
system.realview.ethernet.coalescedRxOrn           nan                       # average number of RxOrn's coalesced into each post
system.realview.ethernet.totalRxOrn                 0                       # total number of RxOrn written to ISR
system.realview.ethernet.coalescedTotal           nan                       # average number of interrupts coalesced into each post
system.realview.ethernet.postedInterrupts            0                       # number of posts to CPU
system.realview.ethernet.droppedPackets             0                       # number of packets dropped
system.realview.mcc.osc_clcd.clock              42105                       # Clock period in ticks
system.realview.mcc.osc_mcc.clock               20000                       # Clock period in ticks
system.realview.mcc.osc_peripheral.clock        41667                       # Clock period in ticks
system.realview.mcc.osc_system_bus.clock        41667                       # Clock period in ticks
system.toL2Bus.snoop_filter.tot_requests      5053855                       # Total number of requests made to the snoop filter.
system.toL2Bus.snoop_filter.hit_single_requests      2538047                       # Number of requests hitting in the snoop filter with a single holder of the requested data.
system.toL2Bus.snoop_filter.hit_multi_requests        38136                       # Number of requests hitting in the snoop filter with multiple (>1) holders of the requested data.
system.toL2Bus.snoop_filter.tot_snoops            581                       # Total number of snoops made to the snoop filter.
system.toL2Bus.snoop_filter.hit_single_snoops          581                       # Number of snoops hitting in the snoop filter with a single holder of the requested data.
system.toL2Bus.snoop_filter.hit_multi_snoops            0                       # Number of snoops hitting in the snoop filter with multiple (>1) holders of the requested data.
system.toL2Bus.trans_dist::ReadReq              74697                       # Transaction distribution
system.toL2Bus.trans_dist::ReadResp           2294848                       # Transaction distribution
system.toL2Bus.trans_dist::WriteReq             27589                       # Transaction distribution
system.toL2Bus.trans_dist::WriteResp            27589                       # Transaction distribution
system.toL2Bus.trans_dist::WritebackDirty       801289                       # Transaction distribution
system.toL2Bus.trans_dist::WritebackClean      1695677                       # Transaction distribution
system.toL2Bus.trans_dist::CleanEvict          141805                       # Transaction distribution
system.toL2Bus.trans_dist::UpgradeReq            2765                       # Transaction distribution
system.toL2Bus.trans_dist::SCUpgradeReq             2                       # Transaction distribution
system.toL2Bus.trans_dist::UpgradeResp           2767                       # Transaction distribution
system.toL2Bus.trans_dist::ReadExReq           295892                       # Transaction distribution
system.toL2Bus.trans_dist::ReadExResp          295892                       # Transaction distribution
system.toL2Bus.trans_dist::ReadCleanReq       1696195                       # Transaction distribution
system.toL2Bus.trans_dist::ReadSharedReq       523971                       # Transaction distribution
system.toL2Bus.trans_dist::InvalidateReq        36224                       # Transaction distribution
system.toL2Bus.pkt_count_system.cpu0.icache.mem_side::system.l2c.cpu_side      5106078                       # Packet count per connected master and slave (bytes)
system.toL2Bus.pkt_count_system.cpu0.dcache.mem_side::system.l2c.cpu_side      2581570                       # Packet count per connected master and slave (bytes)
system.toL2Bus.pkt_count_system.cpu0.itb.walker.dma::system.l2c.cpu_side        18395                       # Packet count per connected master and slave (bytes)
system.toL2Bus.pkt_count_system.cpu0.dtb.walker.dma::system.l2c.cpu_side        34840                       # Packet count per connected master and slave (bytes)
system.toL2Bus.pkt_count::total               7740883                       # Packet count per connected master and slave (bytes)
system.toL2Bus.pkt_size_system.cpu0.icache.mem_side::system.l2c.cpu_side    217113784                       # Cumulative packet size per connected master and slave (bytes)
system.toL2Bus.pkt_size_system.cpu0.dcache.mem_side::system.l2c.cpu_side     96423069                       # Cumulative packet size per connected master and slave (bytes)
system.toL2Bus.pkt_size_system.cpu0.itb.walker.dma::system.l2c.cpu_side        26060                       # Cumulative packet size per connected master and slave (bytes)
system.toL2Bus.pkt_size_system.cpu0.dtb.walker.dma::system.l2c.cpu_side        48732                       # Cumulative packet size per connected master and slave (bytes)
system.toL2Bus.pkt_size::total              313611645                       # Cumulative packet size per connected master and slave (bytes)
system.toL2Bus.snoops                          176532                       # Total snoops (count)
system.toL2Bus.snoop_fanout::samples          2781330                       # Request fanout histogram
system.toL2Bus.snoop_fanout::mean            0.021292                       # Request fanout histogram
system.toL2Bus.snoop_fanout::stdev           0.144357                       # Request fanout histogram
system.toL2Bus.snoop_fanout::underflows             0      0.00%      0.00% # Request fanout histogram
system.toL2Bus.snoop_fanout::0                2722109     97.87%     97.87% # Request fanout histogram
system.toL2Bus.snoop_fanout::1                  59221      2.13%    100.00% # Request fanout histogram
system.toL2Bus.snoop_fanout::2                      0      0.00%    100.00% # Request fanout histogram
system.toL2Bus.snoop_fanout::overflows              0      0.00%    100.00% # Request fanout histogram
system.toL2Bus.snoop_fanout::min_value              0                       # Request fanout histogram
system.toL2Bus.snoop_fanout::max_value              1                       # Request fanout histogram
system.toL2Bus.snoop_fanout::total            2781330                       # Request fanout histogram
system.toL2Bus.reqLayer0.occupancy         4961202000                       # Layer occupancy (ticks)
system.toL2Bus.reqLayer0.utilization              0.2                       # Layer utilization (%)
system.toL2Bus.snoopLayer0.occupancy           380377                       # Layer occupancy (ticks)
system.toL2Bus.snoopLayer0.utilization            0.0                       # Layer utilization (%)
system.toL2Bus.respLayer0.occupancy        2553314500                       # Layer occupancy (ticks)
system.toL2Bus.respLayer0.utilization             0.1                       # Layer utilization (%)
system.toL2Bus.respLayer1.occupancy        1275768500                       # Layer occupancy (ticks)
system.toL2Bus.respLayer1.utilization             0.0                       # Layer utilization (%)
system.toL2Bus.respLayer2.occupancy          11880000                       # Layer occupancy (ticks)
system.toL2Bus.respLayer2.utilization             0.0                       # Layer utilization (%)
system.toL2Bus.respLayer3.occupancy          22657000                       # Layer occupancy (ticks)
system.toL2Bus.respLayer3.utilization             0.0                       # Layer utilization (%)

---------- End Simulation Statistics   ----------
