
---------- Begin Simulation Statistics ----------
sim_seconds                                  0.130383                       # Number of seconds simulated
sim_ticks                                130382890500                       # Number of ticks simulated
final_tick                               130382890500                       # Number of ticks from beginning of simulation (restored from checkpoints and never reset)
sim_freq                                 1000000000000                       # Frequency of simulated ticks
host_inst_rate                                 181123                       # Simulator instruction rate (inst/s)
host_op_rate                                   190933                       # Simulator op (including micro ops) rate (op/s)
host_tick_rate                              137045131                       # Simulator tick rate (ticks/s)
host_mem_usage                                 270196                       # Number of bytes of host memory used
host_seconds                                   951.39                       # Real time elapsed on the host
sim_insts                                   172317810                       # Number of instructions simulated
sim_ops                                     181650743                       # Number of ops (including micro ops) simulated
system.voltage_domain.voltage                       1                       # Voltage in Volts
system.clk_domain.clock                          1000                       # Clock period in ticks
system.physmem.bytes_read::cpu.inst            138112                       # Number of bytes read from this memory
system.physmem.bytes_read::cpu.data            109312                       # Number of bytes read from this memory
system.physmem.bytes_read::total               247424                       # Number of bytes read from this memory
system.physmem.bytes_inst_read::cpu.inst       138112                       # Number of instructions bytes read from this memory
system.physmem.bytes_inst_read::total          138112                       # Number of instructions bytes read from this memory
system.physmem.num_reads::cpu.inst               2158                       # Number of read requests responded to by this memory
system.physmem.num_reads::cpu.data               1708                       # Number of read requests responded to by this memory
system.physmem.num_reads::total                  3866                       # Number of read requests responded to by this memory
system.physmem.bw_read::cpu.inst              1059280                       # Total read bandwidth from this memory (bytes/s)
system.physmem.bw_read::cpu.data               838392                       # Total read bandwidth from this memory (bytes/s)
system.physmem.bw_read::total                 1897672                       # Total read bandwidth from this memory (bytes/s)
system.physmem.bw_inst_read::cpu.inst         1059280                       # Instruction read bandwidth from this memory (bytes/s)
system.physmem.bw_inst_read::total            1059280                       # Instruction read bandwidth from this memory (bytes/s)
system.physmem.bw_total::cpu.inst             1059280                       # Total bandwidth to/from this memory (bytes/s)
system.physmem.bw_total::cpu.data              838392                       # Total bandwidth to/from this memory (bytes/s)
system.physmem.bw_total::total                1897672                       # Total bandwidth to/from this memory (bytes/s)
system.physmem.readReqs                          3866                       # Number of read requests accepted
system.physmem.writeReqs                            0                       # Number of write requests accepted
system.physmem.readBursts                        3866                       # Number of DRAM read bursts, including those serviced by the write queue
system.physmem.writeBursts                          0                       # Number of DRAM write bursts, including those merged in the write queue
system.physmem.bytesReadDRAM                   247424                       # Total number of bytes read from DRAM
system.physmem.bytesReadWrQ                         0                       # Total number of bytes read from write queue
system.physmem.bytesWritten                         0                       # Total number of bytes written to DRAM
system.physmem.bytesReadSys                    247424                       # Total read bytes from the system interface side
system.physmem.bytesWrittenSys                      0                       # Total written bytes from the system interface side
system.physmem.servicedByWrQ                        0                       # Number of DRAM read bursts serviced by the write queue
system.physmem.mergedWrBursts                       0                       # Number of DRAM write bursts merged with an existing one
system.physmem.neitherReadNorWriteReqs              0                       # Number of requests that are neither read nor write
system.physmem.perBankRdBursts::0                 305                       # Per bank write bursts
system.physmem.perBankRdBursts::1                 217                       # Per bank write bursts
system.physmem.perBankRdBursts::2                 135                       # Per bank write bursts
system.physmem.perBankRdBursts::3                 313                       # Per bank write bursts
system.physmem.perBankRdBursts::4                 306                       # Per bank write bursts
system.physmem.perBankRdBursts::5                 305                       # Per bank write bursts
system.physmem.perBankRdBursts::6                 273                       # Per bank write bursts
system.physmem.perBankRdBursts::7                 222                       # Per bank write bursts
system.physmem.perBankRdBursts::8                 248                       # Per bank write bursts
system.physmem.perBankRdBursts::9                 218                       # Per bank write bursts
system.physmem.perBankRdBursts::10                295                       # Per bank write bursts
system.physmem.perBankRdBursts::11                200                       # Per bank write bursts
system.physmem.perBankRdBursts::12                183                       # Per bank write bursts
system.physmem.perBankRdBursts::13                218                       # Per bank write bursts
system.physmem.perBankRdBursts::14                224                       # Per bank write bursts
system.physmem.perBankRdBursts::15                204                       # Per bank write bursts
system.physmem.perBankWrBursts::0                   0                       # Per bank write bursts
system.physmem.perBankWrBursts::1                   0                       # Per bank write bursts
system.physmem.perBankWrBursts::2                   0                       # Per bank write bursts
system.physmem.perBankWrBursts::3                   0                       # Per bank write bursts
system.physmem.perBankWrBursts::4                   0                       # Per bank write bursts
system.physmem.perBankWrBursts::5                   0                       # Per bank write bursts
system.physmem.perBankWrBursts::6                   0                       # Per bank write bursts
system.physmem.perBankWrBursts::7                   0                       # Per bank write bursts
system.physmem.perBankWrBursts::8                   0                       # Per bank write bursts
system.physmem.perBankWrBursts::9                   0                       # Per bank write bursts
system.physmem.perBankWrBursts::10                  0                       # Per bank write bursts
system.physmem.perBankWrBursts::11                  0                       # Per bank write bursts
system.physmem.perBankWrBursts::12                  0                       # Per bank write bursts
system.physmem.perBankWrBursts::13                  0                       # Per bank write bursts
system.physmem.perBankWrBursts::14                  0                       # Per bank write bursts
system.physmem.perBankWrBursts::15                  0                       # Per bank write bursts
system.physmem.numRdRetry                           0                       # Number of times read queue was full causing retry
system.physmem.numWrRetry                           0                       # Number of times write queue was full causing retry
system.physmem.totGap                    130382796000                       # Total gap between requests
system.physmem.readPktSize::0                       0                       # Read request sizes (log2)
system.physmem.readPktSize::1                       0                       # Read request sizes (log2)
system.physmem.readPktSize::2                       0                       # Read request sizes (log2)
system.physmem.readPktSize::3                       0                       # Read request sizes (log2)
system.physmem.readPktSize::4                       0                       # Read request sizes (log2)
system.physmem.readPktSize::5                       0                       # Read request sizes (log2)
system.physmem.readPktSize::6                    3866                       # Read request sizes (log2)
system.physmem.writePktSize::0                      0                       # Write request sizes (log2)
system.physmem.writePktSize::1                      0                       # Write request sizes (log2)
system.physmem.writePktSize::2                      0                       # Write request sizes (log2)
system.physmem.writePktSize::3                      0                       # Write request sizes (log2)
system.physmem.writePktSize::4                      0                       # Write request sizes (log2)
system.physmem.writePktSize::5                      0                       # Write request sizes (log2)
system.physmem.writePktSize::6                      0                       # Write request sizes (log2)
system.physmem.rdQLenPdf::0                      3618                       # What read queue length does an incoming req see
system.physmem.rdQLenPdf::1                       236                       # What read queue length does an incoming req see
system.physmem.rdQLenPdf::2                        12                       # What read queue length does an incoming req see
system.physmem.rdQLenPdf::3                         0                       # What read queue length does an incoming req see
system.physmem.rdQLenPdf::4                         0                       # What read queue length does an incoming req see
system.physmem.rdQLenPdf::5                         0                       # What read queue length does an incoming req see
system.physmem.rdQLenPdf::6                         0                       # What read queue length does an incoming req see
system.physmem.rdQLenPdf::7                         0                       # What read queue length does an incoming req see
system.physmem.rdQLenPdf::8                         0                       # What read queue length does an incoming req see
system.physmem.rdQLenPdf::9                         0                       # What read queue length does an incoming req see
system.physmem.rdQLenPdf::10                        0                       # What read queue length does an incoming req see
system.physmem.rdQLenPdf::11                        0                       # What read queue length does an incoming req see
system.physmem.rdQLenPdf::12                        0                       # What read queue length does an incoming req see
system.physmem.rdQLenPdf::13                        0                       # What read queue length does an incoming req see
system.physmem.rdQLenPdf::14                        0                       # What read queue length does an incoming req see
system.physmem.rdQLenPdf::15                        0                       # What read queue length does an incoming req see
system.physmem.rdQLenPdf::16                        0                       # What read queue length does an incoming req see
system.physmem.rdQLenPdf::17                        0                       # What read queue length does an incoming req see
system.physmem.rdQLenPdf::18                        0                       # What read queue length does an incoming req see
system.physmem.rdQLenPdf::19                        0                       # What read queue length does an incoming req see
system.physmem.rdQLenPdf::20                        0                       # What read queue length does an incoming req see
system.physmem.rdQLenPdf::21                        0                       # What read queue length does an incoming req see
system.physmem.rdQLenPdf::22                        0                       # What read queue length does an incoming req see
system.physmem.rdQLenPdf::23                        0                       # What read queue length does an incoming req see
system.physmem.rdQLenPdf::24                        0                       # What read queue length does an incoming req see
system.physmem.rdQLenPdf::25                        0                       # What read queue length does an incoming req see
system.physmem.rdQLenPdf::26                        0                       # What read queue length does an incoming req see
system.physmem.rdQLenPdf::27                        0                       # What read queue length does an incoming req see
system.physmem.rdQLenPdf::28                        0                       # What read queue length does an incoming req see
system.physmem.rdQLenPdf::29                        0                       # What read queue length does an incoming req see
system.physmem.rdQLenPdf::30                        0                       # What read queue length does an incoming req see
system.physmem.rdQLenPdf::31                        0                       # What read queue length does an incoming req see
system.physmem.wrQLenPdf::0                         0                       # What write queue length does an incoming req see
system.physmem.wrQLenPdf::1                         0                       # What write queue length does an incoming req see
system.physmem.wrQLenPdf::2                         0                       # What write queue length does an incoming req see
system.physmem.wrQLenPdf::3                         0                       # What write queue length does an incoming req see
system.physmem.wrQLenPdf::4                         0                       # What write queue length does an incoming req see
system.physmem.wrQLenPdf::5                         0                       # What write queue length does an incoming req see
system.physmem.wrQLenPdf::6                         0                       # What write queue length does an incoming req see
system.physmem.wrQLenPdf::7                         0                       # What write queue length does an incoming req see
system.physmem.wrQLenPdf::8                         0                       # What write queue length does an incoming req see
system.physmem.wrQLenPdf::9                         0                       # What write queue length does an incoming req see
system.physmem.wrQLenPdf::10                        0                       # What write queue length does an incoming req see
system.physmem.wrQLenPdf::11                        0                       # What write queue length does an incoming req see
system.physmem.wrQLenPdf::12                        0                       # What write queue length does an incoming req see
system.physmem.wrQLenPdf::13                        0                       # What write queue length does an incoming req see
system.physmem.wrQLenPdf::14                        0                       # What write queue length does an incoming req see
system.physmem.wrQLenPdf::15                        0                       # What write queue length does an incoming req see
system.physmem.wrQLenPdf::16                        0                       # What write queue length does an incoming req see
system.physmem.wrQLenPdf::17                        0                       # What write queue length does an incoming req see
system.physmem.wrQLenPdf::18                        0                       # What write queue length does an incoming req see
system.physmem.wrQLenPdf::19                        0                       # What write queue length does an incoming req see
system.physmem.wrQLenPdf::20                        0                       # What write queue length does an incoming req see
system.physmem.wrQLenPdf::21                        0                       # What write queue length does an incoming req see
system.physmem.wrQLenPdf::22                        0                       # What write queue length does an incoming req see
system.physmem.wrQLenPdf::23                        0                       # What write queue length does an incoming req see
system.physmem.wrQLenPdf::24                        0                       # What write queue length does an incoming req see
system.physmem.wrQLenPdf::25                        0                       # What write queue length does an incoming req see
system.physmem.wrQLenPdf::26                        0                       # What write queue length does an incoming req see
system.physmem.wrQLenPdf::27                        0                       # What write queue length does an incoming req see
system.physmem.wrQLenPdf::28                        0                       # What write queue length does an incoming req see
system.physmem.wrQLenPdf::29                        0                       # What write queue length does an incoming req see
system.physmem.wrQLenPdf::30                        0                       # What write queue length does an incoming req see
system.physmem.wrQLenPdf::31                        0                       # What write queue length does an incoming req see
system.physmem.wrQLenPdf::32                        0                       # What write queue length does an incoming req see
system.physmem.wrQLenPdf::33                        0                       # What write queue length does an incoming req see
system.physmem.wrQLenPdf::34                        0                       # What write queue length does an incoming req see
system.physmem.wrQLenPdf::35                        0                       # What write queue length does an incoming req see
system.physmem.wrQLenPdf::36                        0                       # What write queue length does an incoming req see
system.physmem.wrQLenPdf::37                        0                       # What write queue length does an incoming req see
system.physmem.wrQLenPdf::38                        0                       # What write queue length does an incoming req see
system.physmem.wrQLenPdf::39                        0                       # What write queue length does an incoming req see
system.physmem.wrQLenPdf::40                        0                       # What write queue length does an incoming req see
system.physmem.wrQLenPdf::41                        0                       # What write queue length does an incoming req see
system.physmem.wrQLenPdf::42                        0                       # What write queue length does an incoming req see
system.physmem.wrQLenPdf::43                        0                       # What write queue length does an incoming req see
system.physmem.wrQLenPdf::44                        0                       # What write queue length does an incoming req see
system.physmem.wrQLenPdf::45                        0                       # What write queue length does an incoming req see
system.physmem.wrQLenPdf::46                        0                       # What write queue length does an incoming req see
system.physmem.wrQLenPdf::47                        0                       # What write queue length does an incoming req see
system.physmem.wrQLenPdf::48                        0                       # What write queue length does an incoming req see
system.physmem.wrQLenPdf::49                        0                       # What write queue length does an incoming req see
system.physmem.wrQLenPdf::50                        0                       # What write queue length does an incoming req see
system.physmem.wrQLenPdf::51                        0                       # What write queue length does an incoming req see
system.physmem.wrQLenPdf::52                        0                       # What write queue length does an incoming req see
system.physmem.wrQLenPdf::53                        0                       # What write queue length does an incoming req see
system.physmem.wrQLenPdf::54                        0                       # What write queue length does an incoming req see
system.physmem.wrQLenPdf::55                        0                       # What write queue length does an incoming req see
system.physmem.wrQLenPdf::56                        0                       # What write queue length does an incoming req see
system.physmem.wrQLenPdf::57                        0                       # What write queue length does an incoming req see
system.physmem.wrQLenPdf::58                        0                       # What write queue length does an incoming req see
system.physmem.wrQLenPdf::59                        0                       # What write queue length does an incoming req see
system.physmem.wrQLenPdf::60                        0                       # What write queue length does an incoming req see
system.physmem.wrQLenPdf::61                        0                       # What write queue length does an incoming req see
system.physmem.wrQLenPdf::62                        0                       # What write queue length does an incoming req see
system.physmem.wrQLenPdf::63                        0                       # What write queue length does an incoming req see
system.physmem.bytesPerActivate::samples          915                       # Bytes accessed per row activation
system.physmem.bytesPerActivate::mean      268.939891                       # Bytes accessed per row activation
system.physmem.bytesPerActivate::gmean     176.781102                       # Bytes accessed per row activation
system.physmem.bytesPerActivate::stdev     276.529935                       # Bytes accessed per row activation
system.physmem.bytesPerActivate::0-127            273     29.84%     29.84% # Bytes accessed per row activation
system.physmem.bytesPerActivate::128-255          347     37.92%     67.76% # Bytes accessed per row activation
system.physmem.bytesPerActivate::256-383           83      9.07%     76.83% # Bytes accessed per row activation
system.physmem.bytesPerActivate::384-511           59      6.45%     83.28% # Bytes accessed per row activation
system.physmem.bytesPerActivate::512-639           35      3.83%     87.10% # Bytes accessed per row activation
system.physmem.bytesPerActivate::640-767           24      2.62%     89.73% # Bytes accessed per row activation
system.physmem.bytesPerActivate::768-895           16      1.75%     91.48% # Bytes accessed per row activation
system.physmem.bytesPerActivate::896-1023           20      2.19%     93.66% # Bytes accessed per row activation
system.physmem.bytesPerActivate::1024-1151           58      6.34%    100.00% # Bytes accessed per row activation
system.physmem.bytesPerActivate::total            915                       # Bytes accessed per row activation
system.physmem.totQLat                       27071500                       # Total ticks spent queuing
system.physmem.totMemAccLat                  99559000                       # Total ticks spent from burst creation until serviced by the DRAM
system.physmem.totBusLat                     19330000                       # Total ticks spent in databus transfers
system.physmem.avgQLat                        7002.46                       # Average queueing delay per DRAM burst
system.physmem.avgBusLat                      5000.00                       # Average bus latency per DRAM burst
system.physmem.avgMemAccLat                  25752.46                       # Average memory access latency per DRAM burst
system.physmem.avgRdBW                           1.90                       # Average DRAM read bandwidth in MiByte/s
system.physmem.avgWrBW                           0.00                       # Average achieved write bandwidth in MiByte/s
system.physmem.avgRdBWSys                        1.90                       # Average system read bandwidth in MiByte/s
system.physmem.avgWrBWSys                        0.00                       # Average system write bandwidth in MiByte/s
system.physmem.peakBW                        12800.00                       # Theoretical peak bandwidth in MiByte/s
system.physmem.busUtil                           0.01                       # Data bus utilization in percentage
system.physmem.busUtilRead                       0.01                       # Data bus utilization in percentage for reads
system.physmem.busUtilWrite                      0.00                       # Data bus utilization in percentage for writes
system.physmem.avgRdQLen                         1.00                       # Average read queue length when enqueuing
system.physmem.avgWrQLen                         0.00                       # Average write queue length when enqueuing
system.physmem.readRowHits                       2948                       # Number of row buffer hits during reads
system.physmem.writeRowHits                         0                       # Number of row buffer hits during writes
system.physmem.readRowHitRate                   76.25                       # Row buffer hit rate for reads
system.physmem.writeRowHitRate                    nan                       # Row buffer hit rate for writes
system.physmem.avgGap                     33725503.36                       # Average gap between requests
system.physmem.pageHitRate                      76.25                       # Row buffer hit rate, read and write combined
system.physmem_0.actEnergy                    3144960                       # Energy for activate commands per rank (pJ)
system.physmem_0.preEnergy                    1716000                       # Energy for precharge commands per rank (pJ)
system.physmem_0.readEnergy                  16192800                       # Energy for read commands per rank (pJ)
system.physmem_0.writeEnergy                        0                       # Energy for write commands per rank (pJ)
system.physmem_0.refreshEnergy             8515837200                       # Energy for refresh commands per rank (pJ)
system.physmem_0.actBackEnergy             3562127505                       # Energy for active background per rank (pJ)
system.physmem_0.preBackEnergy            75103936500                       # Energy for precharge background per rank (pJ)
system.physmem_0.totalEnergy              87202954965                       # Total energy per rank (pJ)
system.physmem_0.averagePower              668.831686                       # Core power per rank (mW)
system.physmem_0.memoryStateTime::IDLE   124939990750                       # Time in different power states
system.physmem_0.memoryStateTime::REF      4353700000                       # Time in different power states
system.physmem_0.memoryStateTime::PRE_PDN            0                       # Time in different power states
system.physmem_0.memoryStateTime::ACT      1087339250                       # Time in different power states
system.physmem_0.memoryStateTime::ACT_PDN            0                       # Time in different power states
system.physmem_1.actEnergy                    3764880                       # Energy for activate commands per rank (pJ)
system.physmem_1.preEnergy                    2054250                       # Energy for precharge commands per rank (pJ)
system.physmem_1.readEnergy                  13790400                       # Energy for read commands per rank (pJ)
system.physmem_1.writeEnergy                        0                       # Energy for write commands per rank (pJ)
system.physmem_1.refreshEnergy             8515837200                       # Energy for refresh commands per rank (pJ)
system.physmem_1.actBackEnergy             3544157970                       # Energy for active background per rank (pJ)
system.physmem_1.preBackEnergy            75119701500                       # Energy for precharge background per rank (pJ)
system.physmem_1.totalEnergy              87199306200                       # Total energy per rank (pJ)
system.physmem_1.averagePower              668.803682                       # Core power per rank (mW)
system.physmem_1.memoryStateTime::IDLE   124966482000                       # Time in different power states
system.physmem_1.memoryStateTime::REF      4353700000                       # Time in different power states
system.physmem_1.memoryStateTime::PRE_PDN            0                       # Time in different power states
system.physmem_1.memoryStateTime::ACT      1060850750                       # Time in different power states
system.physmem_1.memoryStateTime::ACT_PDN            0                       # Time in different power states
system.cpu.branchPred.lookups                49622074                       # Number of BP lookups
system.cpu.branchPred.condPredicted          39447439                       # Number of conditional branches predicted
system.cpu.branchPred.condIncorrect           5514206                       # Number of conditional branches incorrect
system.cpu.branchPred.BTBLookups             24092073                       # Number of BTB lookups
system.cpu.branchPred.BTBHits                22843202                       # Number of BTB hits
system.cpu.branchPred.BTBCorrect                    0                       # Number of correct BTB predictions (this stat may not work properly.
system.cpu.branchPred.BTBHitPct             94.816258                       # BTB Hit Percentage
system.cpu.branchPred.usedRAS                 1888965                       # Number of times the RAS was used to get a target.
system.cpu.branchPred.RASInCorrect                142                       # Number of incorrect RAS predictions.
system.cpu.branchPred.indirectLookups          213748                       # Number of indirect predictor lookups.
system.cpu.branchPred.indirectHits             207973                       # Number of indirect target hits.
system.cpu.branchPred.indirectMisses             5775                       # Number of indirect misses.
system.cpu.branchPredindirectMispredicted        40452                       # Number of mispredicted indirect branches.
system.cpu_clk_domain.clock                       500                       # Clock period in ticks
system.cpu.dstage2_mmu.stage2_tlb.walker.walks            0                       # Table walker walks requested
system.cpu.dstage2_mmu.stage2_tlb.walker.walkRequestOrigin_Requested::Data            0                       # Table walker requests started/completed, data/inst
system.cpu.dstage2_mmu.stage2_tlb.walker.walkRequestOrigin_Requested::Inst            0                       # Table walker requests started/completed, data/inst
system.cpu.dstage2_mmu.stage2_tlb.walker.walkRequestOrigin_Requested::total            0                       # Table walker requests started/completed, data/inst
system.cpu.dstage2_mmu.stage2_tlb.walker.walkRequestOrigin_Completed::Data            0                       # Table walker requests started/completed, data/inst
system.cpu.dstage2_mmu.stage2_tlb.walker.walkRequestOrigin_Completed::Inst            0                       # Table walker requests started/completed, data/inst
system.cpu.dstage2_mmu.stage2_tlb.walker.walkRequestOrigin_Completed::total            0                       # Table walker requests started/completed, data/inst
system.cpu.dstage2_mmu.stage2_tlb.walker.walkRequestOrigin::total            0                       # Table walker requests started/completed, data/inst
system.cpu.dstage2_mmu.stage2_tlb.inst_hits            0                       # ITB inst hits
system.cpu.dstage2_mmu.stage2_tlb.inst_misses            0                       # ITB inst misses
system.cpu.dstage2_mmu.stage2_tlb.read_hits            0                       # DTB read hits
system.cpu.dstage2_mmu.stage2_tlb.read_misses            0                       # DTB read misses
system.cpu.dstage2_mmu.stage2_tlb.write_hits            0                       # DTB write hits
system.cpu.dstage2_mmu.stage2_tlb.write_misses            0                       # DTB write misses
system.cpu.dstage2_mmu.stage2_tlb.flush_tlb            0                       # Number of times complete TLB was flushed
system.cpu.dstage2_mmu.stage2_tlb.flush_tlb_mva            0                       # Number of times TLB was flushed by MVA
system.cpu.dstage2_mmu.stage2_tlb.flush_tlb_mva_asid            0                       # Number of times TLB was flushed by MVA & ASID
system.cpu.dstage2_mmu.stage2_tlb.flush_tlb_asid            0                       # Number of times TLB was flushed by ASID
system.cpu.dstage2_mmu.stage2_tlb.flush_entries            0                       # Number of entries that have been flushed from TLB
system.cpu.dstage2_mmu.stage2_tlb.align_faults            0                       # Number of TLB faults due to alignment restrictions
system.cpu.dstage2_mmu.stage2_tlb.prefetch_faults            0                       # Number of TLB faults due to prefetch
system.cpu.dstage2_mmu.stage2_tlb.domain_faults            0                       # Number of TLB faults due to domain restrictions
system.cpu.dstage2_mmu.stage2_tlb.perms_faults            0                       # Number of TLB faults due to permissions restrictions
system.cpu.dstage2_mmu.stage2_tlb.read_accesses            0                       # DTB read accesses
system.cpu.dstage2_mmu.stage2_tlb.write_accesses            0                       # DTB write accesses
system.cpu.dstage2_mmu.stage2_tlb.inst_accesses            0                       # ITB inst accesses
system.cpu.dstage2_mmu.stage2_tlb.hits              0                       # DTB hits
system.cpu.dstage2_mmu.stage2_tlb.misses            0                       # DTB misses
system.cpu.dstage2_mmu.stage2_tlb.accesses            0                       # DTB accesses
system.cpu.dtb.walker.walks                         0                       # Table walker walks requested
system.cpu.dtb.walker.walkRequestOrigin_Requested::Data            0                       # Table walker requests started/completed, data/inst
system.cpu.dtb.walker.walkRequestOrigin_Requested::Inst            0                       # Table walker requests started/completed, data/inst
system.cpu.dtb.walker.walkRequestOrigin_Requested::total            0                       # Table walker requests started/completed, data/inst
system.cpu.dtb.walker.walkRequestOrigin_Completed::Data            0                       # Table walker requests started/completed, data/inst
system.cpu.dtb.walker.walkRequestOrigin_Completed::Inst            0                       # Table walker requests started/completed, data/inst
system.cpu.dtb.walker.walkRequestOrigin_Completed::total            0                       # Table walker requests started/completed, data/inst
system.cpu.dtb.walker.walkRequestOrigin::total            0                       # Table walker requests started/completed, data/inst
system.cpu.dtb.inst_hits                            0                       # ITB inst hits
system.cpu.dtb.inst_misses                          0                       # ITB inst misses
system.cpu.dtb.read_hits                            0                       # DTB read hits
system.cpu.dtb.read_misses                          0                       # DTB read misses
system.cpu.dtb.write_hits                           0                       # DTB write hits
system.cpu.dtb.write_misses                         0                       # DTB write misses
system.cpu.dtb.flush_tlb                            0                       # Number of times complete TLB was flushed
system.cpu.dtb.flush_tlb_mva                        0                       # Number of times TLB was flushed by MVA
system.cpu.dtb.flush_tlb_mva_asid                   0                       # Number of times TLB was flushed by MVA & ASID
system.cpu.dtb.flush_tlb_asid                       0                       # Number of times TLB was flushed by ASID
system.cpu.dtb.flush_entries                        0                       # Number of entries that have been flushed from TLB
system.cpu.dtb.align_faults                         0                       # Number of TLB faults due to alignment restrictions
system.cpu.dtb.prefetch_faults                      0                       # Number of TLB faults due to prefetch
system.cpu.dtb.domain_faults                        0                       # Number of TLB faults due to domain restrictions
system.cpu.dtb.perms_faults                         0                       # Number of TLB faults due to permissions restrictions
system.cpu.dtb.read_accesses                        0                       # DTB read accesses
system.cpu.dtb.write_accesses                       0                       # DTB write accesses
system.cpu.dtb.inst_accesses                        0                       # ITB inst accesses
system.cpu.dtb.hits                                 0                       # DTB hits
system.cpu.dtb.misses                               0                       # DTB misses
system.cpu.dtb.accesses                             0                       # DTB accesses
system.cpu.istage2_mmu.stage2_tlb.walker.walks            0                       # Table walker walks requested
system.cpu.istage2_mmu.stage2_tlb.walker.walkRequestOrigin_Requested::Data            0                       # Table walker requests started/completed, data/inst
system.cpu.istage2_mmu.stage2_tlb.walker.walkRequestOrigin_Requested::Inst            0                       # Table walker requests started/completed, data/inst
system.cpu.istage2_mmu.stage2_tlb.walker.walkRequestOrigin_Requested::total            0                       # Table walker requests started/completed, data/inst
system.cpu.istage2_mmu.stage2_tlb.walker.walkRequestOrigin_Completed::Data            0                       # Table walker requests started/completed, data/inst
system.cpu.istage2_mmu.stage2_tlb.walker.walkRequestOrigin_Completed::Inst            0                       # Table walker requests started/completed, data/inst
system.cpu.istage2_mmu.stage2_tlb.walker.walkRequestOrigin_Completed::total            0                       # Table walker requests started/completed, data/inst
system.cpu.istage2_mmu.stage2_tlb.walker.walkRequestOrigin::total            0                       # Table walker requests started/completed, data/inst
system.cpu.istage2_mmu.stage2_tlb.inst_hits            0                       # ITB inst hits
system.cpu.istage2_mmu.stage2_tlb.inst_misses            0                       # ITB inst misses
system.cpu.istage2_mmu.stage2_tlb.read_hits            0                       # DTB read hits
system.cpu.istage2_mmu.stage2_tlb.read_misses            0                       # DTB read misses
system.cpu.istage2_mmu.stage2_tlb.write_hits            0                       # DTB write hits
system.cpu.istage2_mmu.stage2_tlb.write_misses            0                       # DTB write misses
system.cpu.istage2_mmu.stage2_tlb.flush_tlb            0                       # Number of times complete TLB was flushed
system.cpu.istage2_mmu.stage2_tlb.flush_tlb_mva            0                       # Number of times TLB was flushed by MVA
system.cpu.istage2_mmu.stage2_tlb.flush_tlb_mva_asid            0                       # Number of times TLB was flushed by MVA & ASID
system.cpu.istage2_mmu.stage2_tlb.flush_tlb_asid            0                       # Number of times TLB was flushed by ASID
system.cpu.istage2_mmu.stage2_tlb.flush_entries            0                       # Number of entries that have been flushed from TLB
system.cpu.istage2_mmu.stage2_tlb.align_faults            0                       # Number of TLB faults due to alignment restrictions
system.cpu.istage2_mmu.stage2_tlb.prefetch_faults            0                       # Number of TLB faults due to prefetch
system.cpu.istage2_mmu.stage2_tlb.domain_faults            0                       # Number of TLB faults due to domain restrictions
system.cpu.istage2_mmu.stage2_tlb.perms_faults            0                       # Number of TLB faults due to permissions restrictions
system.cpu.istage2_mmu.stage2_tlb.read_accesses            0                       # DTB read accesses
system.cpu.istage2_mmu.stage2_tlb.write_accesses            0                       # DTB write accesses
system.cpu.istage2_mmu.stage2_tlb.inst_accesses            0                       # ITB inst accesses
system.cpu.istage2_mmu.stage2_tlb.hits              0                       # DTB hits
system.cpu.istage2_mmu.stage2_tlb.misses            0                       # DTB misses
system.cpu.istage2_mmu.stage2_tlb.accesses            0                       # DTB accesses
system.cpu.itb.walker.walks                         0                       # Table walker walks requested
system.cpu.itb.walker.walkRequestOrigin_Requested::Data            0                       # Table walker requests started/completed, data/inst
system.cpu.itb.walker.walkRequestOrigin_Requested::Inst            0                       # Table walker requests started/completed, data/inst
system.cpu.itb.walker.walkRequestOrigin_Requested::total            0                       # Table walker requests started/completed, data/inst
system.cpu.itb.walker.walkRequestOrigin_Completed::Data            0                       # Table walker requests started/completed, data/inst
system.cpu.itb.walker.walkRequestOrigin_Completed::Inst            0                       # Table walker requests started/completed, data/inst
system.cpu.itb.walker.walkRequestOrigin_Completed::total            0                       # Table walker requests started/completed, data/inst
system.cpu.itb.walker.walkRequestOrigin::total            0                       # Table walker requests started/completed, data/inst
system.cpu.itb.inst_hits                            0                       # ITB inst hits
system.cpu.itb.inst_misses                          0                       # ITB inst misses
system.cpu.itb.read_hits                            0                       # DTB read hits
system.cpu.itb.read_misses                          0                       # DTB read misses
system.cpu.itb.write_hits                           0                       # DTB write hits
system.cpu.itb.write_misses                         0                       # DTB write misses
system.cpu.itb.flush_tlb                            0                       # Number of times complete TLB was flushed
system.cpu.itb.flush_tlb_mva                        0                       # Number of times TLB was flushed by MVA
system.cpu.itb.flush_tlb_mva_asid                   0                       # Number of times TLB was flushed by MVA & ASID
system.cpu.itb.flush_tlb_asid                       0                       # Number of times TLB was flushed by ASID
system.cpu.itb.flush_entries                        0                       # Number of entries that have been flushed from TLB
system.cpu.itb.align_faults                         0                       # Number of TLB faults due to alignment restrictions
system.cpu.itb.prefetch_faults                      0                       # Number of TLB faults due to prefetch
system.cpu.itb.domain_faults                        0                       # Number of TLB faults due to domain restrictions
system.cpu.itb.perms_faults                         0                       # Number of TLB faults due to permissions restrictions
system.cpu.itb.read_accesses                        0                       # DTB read accesses
system.cpu.itb.write_accesses                       0                       # DTB write accesses
system.cpu.itb.inst_accesses                        0                       # ITB inst accesses
system.cpu.itb.hits                                 0                       # DTB hits
system.cpu.itb.misses                               0                       # DTB misses
system.cpu.itb.accesses                             0                       # DTB accesses
system.cpu.workload.num_syscalls                  400                       # Number of system calls
system.cpu.numCycles                        260765781                       # number of cpu cycles simulated
system.cpu.numWorkItemsStarted                      0                       # number of work items this cpu started
system.cpu.numWorkItemsCompleted                    0                       # number of work items this cpu completed
system.cpu.committedInsts                   172317810                       # Number of instructions committed
system.cpu.committedOps                     181650743                       # Number of ops (including micro ops) committed
system.cpu.discardedOps                      11583006                       # Number of ops (including micro ops) which were discarded before commit
system.cpu.numFetchSuspends                         0                       # Number of times Execute suspended instruction fetching
system.cpu.cpi                               1.513284                       # CPI: cycles per instruction
system.cpu.ipc                               0.660815                       # IPC: instructions per cycle
system.cpu.op_class_0::No_OpClass                   0      0.00%      0.00% # Class of committed instruction
system.cpu.op_class_0::IntAlu               138988213     76.51%     76.51% # Class of committed instruction
system.cpu.op_class_0::IntMult                 908940      0.50%     77.01% # Class of committed instruction
system.cpu.op_class_0::IntDiv                       0      0.00%     77.01% # Class of committed instruction
system.cpu.op_class_0::FloatAdd                     0      0.00%     77.01% # Class of committed instruction
system.cpu.op_class_0::FloatCmp                     0      0.00%     77.01% # Class of committed instruction
system.cpu.op_class_0::FloatCvt                     0      0.00%     77.01% # Class of committed instruction
system.cpu.op_class_0::FloatMult                    0      0.00%     77.01% # Class of committed instruction
system.cpu.op_class_0::FloatDiv                     0      0.00%     77.01% # Class of committed instruction
system.cpu.op_class_0::FloatSqrt                    0      0.00%     77.01% # Class of committed instruction
system.cpu.op_class_0::SimdAdd                      0      0.00%     77.01% # Class of committed instruction
system.cpu.op_class_0::SimdAddAcc                   0      0.00%     77.01% # Class of committed instruction
system.cpu.op_class_0::SimdAlu                      0      0.00%     77.01% # Class of committed instruction
system.cpu.op_class_0::SimdCmp                      0      0.00%     77.01% # Class of committed instruction
system.cpu.op_class_0::SimdCvt                      0      0.00%     77.01% # Class of committed instruction
system.cpu.op_class_0::SimdMisc                     0      0.00%     77.01% # Class of committed instruction
system.cpu.op_class_0::SimdMult                     0      0.00%     77.01% # Class of committed instruction
system.cpu.op_class_0::SimdMultAcc                  0      0.00%     77.01% # Class of committed instruction
system.cpu.op_class_0::SimdShift                    0      0.00%     77.01% # Class of committed instruction
system.cpu.op_class_0::SimdShiftAcc                 0      0.00%     77.01% # Class of committed instruction
system.cpu.op_class_0::SimdSqrt                     0      0.00%     77.01% # Class of committed instruction
system.cpu.op_class_0::SimdFloatAdd             32754      0.02%     77.03% # Class of committed instruction
system.cpu.op_class_0::SimdFloatAlu                 0      0.00%     77.03% # Class of committed instruction
system.cpu.op_class_0::SimdFloatCmp            154829      0.09%     77.12% # Class of committed instruction
system.cpu.op_class_0::SimdFloatCvt            238880      0.13%     77.25% # Class of committed instruction
system.cpu.op_class_0::SimdFloatDiv             76016      0.04%     77.29% # Class of committed instruction
system.cpu.op_class_0::SimdFloatMisc           437591      0.24%     77.53% # Class of committed instruction
system.cpu.op_class_0::SimdFloatMult           200806      0.11%     77.64% # Class of committed instruction
system.cpu.op_class_0::SimdFloatMultAcc         71617      0.04%     77.68% # Class of committed instruction
system.cpu.op_class_0::SimdFloatSqrt              318      0.00%     77.68% # Class of committed instruction
system.cpu.op_class_0::MemRead               27896144     15.36%     93.04% # Class of committed instruction
system.cpu.op_class_0::MemWrite              12644635      6.96%    100.00% # Class of committed instruction
system.cpu.op_class_0::IprAccess                    0      0.00%    100.00% # Class of committed instruction
system.cpu.op_class_0::InstPrefetch                 0      0.00%    100.00% # Class of committed instruction
system.cpu.op_class_0::total                181650743                       # Class of committed instruction
system.cpu.tickCycles                       254551967                       # Number of cycles that the object actually ticked
system.cpu.idleCycles                         6213814                       # Total number of cycles that the object has spent stopped
system.cpu.dcache.tags.replacements                42                       # number of replacements
system.cpu.dcache.tags.tagsinuse          1378.689350                       # Cycle average of tags in use
system.cpu.dcache.tags.total_refs            40754473                       # Total number of references to valid blocks.
system.cpu.dcache.tags.sampled_refs              1811                       # Sample count of references to valid blocks.
system.cpu.dcache.tags.avg_refs          22503.850359                       # Average number of references to valid blocks.
system.cpu.dcache.tags.warmup_cycle                 0                       # Cycle when the warmup percentage was hit.
system.cpu.dcache.tags.occ_blocks::cpu.data  1378.689350                       # Average occupied blocks per requestor
system.cpu.dcache.tags.occ_percent::cpu.data     0.336594                       # Average percentage of cache occupancy
system.cpu.dcache.tags.occ_percent::total     0.336594                       # Average percentage of cache occupancy
system.cpu.dcache.tags.occ_task_id_blocks::1024         1769                       # Occupied blocks per task id
system.cpu.dcache.tags.age_task_id_blocks_1024::0           18                       # Occupied blocks per task id
system.cpu.dcache.tags.age_task_id_blocks_1024::1           38                       # Occupied blocks per task id
system.cpu.dcache.tags.age_task_id_blocks_1024::2           83                       # Occupied blocks per task id
system.cpu.dcache.tags.age_task_id_blocks_1024::3          271                       # Occupied blocks per task id
system.cpu.dcache.tags.age_task_id_blocks_1024::4         1359                       # Occupied blocks per task id
system.cpu.dcache.tags.occ_task_id_percent::1024     0.431885                       # Percentage of cache occupancy per task id
system.cpu.dcache.tags.tag_accesses          81515639                       # Number of tag accesses
system.cpu.dcache.tags.data_accesses         81515639                       # Number of data accesses
system.cpu.dcache.ReadReq_hits::cpu.data     28346557                       # number of ReadReq hits
system.cpu.dcache.ReadReq_hits::total        28346557                       # number of ReadReq hits
system.cpu.dcache.WriteReq_hits::cpu.data     12362640                       # number of WriteReq hits
system.cpu.dcache.WriteReq_hits::total       12362640                       # number of WriteReq hits
system.cpu.dcache.SoftPFReq_hits::cpu.data          462                       # number of SoftPFReq hits
system.cpu.dcache.SoftPFReq_hits::total           462                       # number of SoftPFReq hits
system.cpu.dcache.LoadLockedReq_hits::cpu.data        22407                       # number of LoadLockedReq hits
system.cpu.dcache.LoadLockedReq_hits::total        22407                       # number of LoadLockedReq hits
system.cpu.dcache.StoreCondReq_hits::cpu.data        22407                       # number of StoreCondReq hits
system.cpu.dcache.StoreCondReq_hits::total        22407                       # number of StoreCondReq hits
system.cpu.dcache.demand_hits::cpu.data      40709197                       # number of demand (read+write) hits
system.cpu.dcache.demand_hits::total         40709197                       # number of demand (read+write) hits
system.cpu.dcache.overall_hits::cpu.data     40709659                       # number of overall hits
system.cpu.dcache.overall_hits::total        40709659                       # number of overall hits
system.cpu.dcache.ReadReq_misses::cpu.data          793                       # number of ReadReq misses
system.cpu.dcache.ReadReq_misses::total           793                       # number of ReadReq misses
system.cpu.dcache.WriteReq_misses::cpu.data         1647                       # number of WriteReq misses
system.cpu.dcache.WriteReq_misses::total         1647                       # number of WriteReq misses
system.cpu.dcache.SoftPFReq_misses::cpu.data            1                       # number of SoftPFReq misses
system.cpu.dcache.SoftPFReq_misses::total            1                       # number of SoftPFReq misses
system.cpu.dcache.demand_misses::cpu.data         2440                       # number of demand (read+write) misses
system.cpu.dcache.demand_misses::total           2440                       # number of demand (read+write) misses
system.cpu.dcache.overall_misses::cpu.data         2441                       # number of overall misses
system.cpu.dcache.overall_misses::total          2441                       # number of overall misses
system.cpu.dcache.ReadReq_miss_latency::cpu.data     59629000                       # number of ReadReq miss cycles
system.cpu.dcache.ReadReq_miss_latency::total     59629000                       # number of ReadReq miss cycles
system.cpu.dcache.WriteReq_miss_latency::cpu.data    126003000                       # number of WriteReq miss cycles
system.cpu.dcache.WriteReq_miss_latency::total    126003000                       # number of WriteReq miss cycles
system.cpu.dcache.demand_miss_latency::cpu.data    185632000                       # number of demand (read+write) miss cycles
system.cpu.dcache.demand_miss_latency::total    185632000                       # number of demand (read+write) miss cycles
system.cpu.dcache.overall_miss_latency::cpu.data    185632000                       # number of overall miss cycles
system.cpu.dcache.overall_miss_latency::total    185632000                       # number of overall miss cycles
system.cpu.dcache.ReadReq_accesses::cpu.data     28347350                       # number of ReadReq accesses(hits+misses)
system.cpu.dcache.ReadReq_accesses::total     28347350                       # number of ReadReq accesses(hits+misses)
system.cpu.dcache.WriteReq_accesses::cpu.data     12364287                       # number of WriteReq accesses(hits+misses)
system.cpu.dcache.WriteReq_accesses::total     12364287                       # number of WriteReq accesses(hits+misses)
system.cpu.dcache.SoftPFReq_accesses::cpu.data          463                       # number of SoftPFReq accesses(hits+misses)
system.cpu.dcache.SoftPFReq_accesses::total          463                       # number of SoftPFReq accesses(hits+misses)
system.cpu.dcache.LoadLockedReq_accesses::cpu.data        22407                       # number of LoadLockedReq accesses(hits+misses)
system.cpu.dcache.LoadLockedReq_accesses::total        22407                       # number of LoadLockedReq accesses(hits+misses)
system.cpu.dcache.StoreCondReq_accesses::cpu.data        22407                       # number of StoreCondReq accesses(hits+misses)
system.cpu.dcache.StoreCondReq_accesses::total        22407                       # number of StoreCondReq accesses(hits+misses)
system.cpu.dcache.demand_accesses::cpu.data     40711637                       # number of demand (read+write) accesses
system.cpu.dcache.demand_accesses::total     40711637                       # number of demand (read+write) accesses
system.cpu.dcache.overall_accesses::cpu.data     40712100                       # number of overall (read+write) accesses
system.cpu.dcache.overall_accesses::total     40712100                       # number of overall (read+write) accesses
system.cpu.dcache.ReadReq_miss_rate::cpu.data     0.000028                       # miss rate for ReadReq accesses
system.cpu.dcache.ReadReq_miss_rate::total     0.000028                       # miss rate for ReadReq accesses
system.cpu.dcache.WriteReq_miss_rate::cpu.data     0.000133                       # miss rate for WriteReq accesses
system.cpu.dcache.WriteReq_miss_rate::total     0.000133                       # miss rate for WriteReq accesses
system.cpu.dcache.SoftPFReq_miss_rate::cpu.data     0.002160                       # miss rate for SoftPFReq accesses
system.cpu.dcache.SoftPFReq_miss_rate::total     0.002160                       # miss rate for SoftPFReq accesses
system.cpu.dcache.demand_miss_rate::cpu.data     0.000060                       # miss rate for demand accesses
system.cpu.dcache.demand_miss_rate::total     0.000060                       # miss rate for demand accesses
system.cpu.dcache.overall_miss_rate::cpu.data     0.000060                       # miss rate for overall accesses
system.cpu.dcache.overall_miss_rate::total     0.000060                       # miss rate for overall accesses
system.cpu.dcache.ReadReq_avg_miss_latency::cpu.data 75194.199243                       # average ReadReq miss latency
system.cpu.dcache.ReadReq_avg_miss_latency::total 75194.199243                       # average ReadReq miss latency
system.cpu.dcache.WriteReq_avg_miss_latency::cpu.data 76504.553734                       # average WriteReq miss latency
system.cpu.dcache.WriteReq_avg_miss_latency::total 76504.553734                       # average WriteReq miss latency
system.cpu.dcache.demand_avg_miss_latency::cpu.data 76078.688525                       # average overall miss latency
system.cpu.dcache.demand_avg_miss_latency::total 76078.688525                       # average overall miss latency
system.cpu.dcache.overall_avg_miss_latency::cpu.data 76047.521508                       # average overall miss latency
system.cpu.dcache.overall_avg_miss_latency::total 76047.521508                       # average overall miss latency
system.cpu.dcache.blocked_cycles::no_mshrs            0                       # number of cycles access was blocked
system.cpu.dcache.blocked_cycles::no_targets            0                       # number of cycles access was blocked
system.cpu.dcache.blocked::no_mshrs                 0                       # number of cycles access was blocked
system.cpu.dcache.blocked::no_targets               0                       # number of cycles access was blocked
system.cpu.dcache.avg_blocked_cycles::no_mshrs          nan                       # average number of cycles each access was blocked
system.cpu.dcache.avg_blocked_cycles::no_targets          nan                       # average number of cycles each access was blocked
system.cpu.dcache.writebacks::writebacks           16                       # number of writebacks
system.cpu.dcache.writebacks::total                16                       # number of writebacks
system.cpu.dcache.ReadReq_mshr_hits::cpu.data           82                       # number of ReadReq MSHR hits
system.cpu.dcache.ReadReq_mshr_hits::total           82                       # number of ReadReq MSHR hits
system.cpu.dcache.WriteReq_mshr_hits::cpu.data          548                       # number of WriteReq MSHR hits
system.cpu.dcache.WriteReq_mshr_hits::total          548                       # number of WriteReq MSHR hits
system.cpu.dcache.demand_mshr_hits::cpu.data          630                       # number of demand (read+write) MSHR hits
system.cpu.dcache.demand_mshr_hits::total          630                       # number of demand (read+write) MSHR hits
system.cpu.dcache.overall_mshr_hits::cpu.data          630                       # number of overall MSHR hits
system.cpu.dcache.overall_mshr_hits::total          630                       # number of overall MSHR hits
system.cpu.dcache.ReadReq_mshr_misses::cpu.data          711                       # number of ReadReq MSHR misses
system.cpu.dcache.ReadReq_mshr_misses::total          711                       # number of ReadReq MSHR misses
system.cpu.dcache.WriteReq_mshr_misses::cpu.data         1099                       # number of WriteReq MSHR misses
system.cpu.dcache.WriteReq_mshr_misses::total         1099                       # number of WriteReq MSHR misses
system.cpu.dcache.SoftPFReq_mshr_misses::cpu.data            1                       # number of SoftPFReq MSHR misses
system.cpu.dcache.SoftPFReq_mshr_misses::total            1                       # number of SoftPFReq MSHR misses
system.cpu.dcache.demand_mshr_misses::cpu.data         1810                       # number of demand (read+write) MSHR misses
system.cpu.dcache.demand_mshr_misses::total         1810                       # number of demand (read+write) MSHR misses
system.cpu.dcache.overall_mshr_misses::cpu.data         1811                       # number of overall MSHR misses
system.cpu.dcache.overall_mshr_misses::total         1811                       # number of overall MSHR misses
system.cpu.dcache.ReadReq_mshr_miss_latency::cpu.data     52555500                       # number of ReadReq MSHR miss cycles
system.cpu.dcache.ReadReq_mshr_miss_latency::total     52555500                       # number of ReadReq MSHR miss cycles
system.cpu.dcache.WriteReq_mshr_miss_latency::cpu.data     85213000                       # number of WriteReq MSHR miss cycles
system.cpu.dcache.WriteReq_mshr_miss_latency::total     85213000                       # number of WriteReq MSHR miss cycles
system.cpu.dcache.SoftPFReq_mshr_miss_latency::cpu.data        70000                       # number of SoftPFReq MSHR miss cycles
system.cpu.dcache.SoftPFReq_mshr_miss_latency::total        70000                       # number of SoftPFReq MSHR miss cycles
system.cpu.dcache.demand_mshr_miss_latency::cpu.data    137768500                       # number of demand (read+write) MSHR miss cycles
system.cpu.dcache.demand_mshr_miss_latency::total    137768500                       # number of demand (read+write) MSHR miss cycles
system.cpu.dcache.overall_mshr_miss_latency::cpu.data    137838500                       # number of overall MSHR miss cycles
system.cpu.dcache.overall_mshr_miss_latency::total    137838500                       # number of overall MSHR miss cycles
system.cpu.dcache.ReadReq_mshr_miss_rate::cpu.data     0.000025                       # mshr miss rate for ReadReq accesses
system.cpu.dcache.ReadReq_mshr_miss_rate::total     0.000025                       # mshr miss rate for ReadReq accesses
system.cpu.dcache.WriteReq_mshr_miss_rate::cpu.data     0.000089                       # mshr miss rate for WriteReq accesses
system.cpu.dcache.WriteReq_mshr_miss_rate::total     0.000089                       # mshr miss rate for WriteReq accesses
system.cpu.dcache.SoftPFReq_mshr_miss_rate::cpu.data     0.002160                       # mshr miss rate for SoftPFReq accesses
system.cpu.dcache.SoftPFReq_mshr_miss_rate::total     0.002160                       # mshr miss rate for SoftPFReq accesses
system.cpu.dcache.demand_mshr_miss_rate::cpu.data     0.000044                       # mshr miss rate for demand accesses
system.cpu.dcache.demand_mshr_miss_rate::total     0.000044                       # mshr miss rate for demand accesses
system.cpu.dcache.overall_mshr_miss_rate::cpu.data     0.000044                       # mshr miss rate for overall accesses
system.cpu.dcache.overall_mshr_miss_rate::total     0.000044                       # mshr miss rate for overall accesses
system.cpu.dcache.ReadReq_avg_mshr_miss_latency::cpu.data 73917.721519                       # average ReadReq mshr miss latency
system.cpu.dcache.ReadReq_avg_mshr_miss_latency::total 73917.721519                       # average ReadReq mshr miss latency
system.cpu.dcache.WriteReq_avg_mshr_miss_latency::cpu.data 77536.851683                       # average WriteReq mshr miss latency
system.cpu.dcache.WriteReq_avg_mshr_miss_latency::total 77536.851683                       # average WriteReq mshr miss latency
system.cpu.dcache.SoftPFReq_avg_mshr_miss_latency::cpu.data        70000                       # average SoftPFReq mshr miss latency
system.cpu.dcache.SoftPFReq_avg_mshr_miss_latency::total        70000                       # average SoftPFReq mshr miss latency
system.cpu.dcache.demand_avg_mshr_miss_latency::cpu.data 76115.193370                       # average overall mshr miss latency
system.cpu.dcache.demand_avg_mshr_miss_latency::total 76115.193370                       # average overall mshr miss latency
system.cpu.dcache.overall_avg_mshr_miss_latency::cpu.data 76111.816676                       # average overall mshr miss latency
system.cpu.dcache.overall_avg_mshr_miss_latency::total 76111.816676                       # average overall mshr miss latency
system.cpu.icache.tags.replacements              2881                       # number of replacements
system.cpu.icache.tags.tagsinuse          1423.942746                       # Cycle average of tags in use
system.cpu.icache.tags.total_refs            70779397                       # Total number of references to valid blocks.
system.cpu.icache.tags.sampled_refs              4677                       # Sample count of references to valid blocks.
system.cpu.icache.tags.avg_refs          15133.503742                       # Average number of references to valid blocks.
system.cpu.icache.tags.warmup_cycle                 0                       # Cycle when the warmup percentage was hit.
system.cpu.icache.tags.occ_blocks::cpu.inst  1423.942746                       # Average occupied blocks per requestor
system.cpu.icache.tags.occ_percent::cpu.inst     0.695285                       # Average percentage of cache occupancy
system.cpu.icache.tags.occ_percent::total     0.695285                       # Average percentage of cache occupancy
system.cpu.icache.tags.occ_task_id_blocks::1024         1796                       # Occupied blocks per task id
system.cpu.icache.tags.age_task_id_blocks_1024::0           51                       # Occupied blocks per task id
system.cpu.icache.tags.age_task_id_blocks_1024::1           59                       # Occupied blocks per task id
system.cpu.icache.tags.age_task_id_blocks_1024::2          496                       # Occupied blocks per task id
system.cpu.icache.tags.age_task_id_blocks_1024::3          122                       # Occupied blocks per task id
system.cpu.icache.tags.age_task_id_blocks_1024::4         1068                       # Occupied blocks per task id
system.cpu.icache.tags.occ_task_id_percent::1024     0.876953                       # Percentage of cache occupancy per task id
system.cpu.icache.tags.tag_accesses         141572827                       # Number of tag accesses
system.cpu.icache.tags.data_accesses        141572827                       # Number of data accesses
system.cpu.icache.ReadReq_hits::cpu.inst     70779397                       # number of ReadReq hits
system.cpu.icache.ReadReq_hits::total        70779397                       # number of ReadReq hits
system.cpu.icache.demand_hits::cpu.inst      70779397                       # number of demand (read+write) hits
system.cpu.icache.demand_hits::total         70779397                       # number of demand (read+write) hits
system.cpu.icache.overall_hits::cpu.inst     70779397                       # number of overall hits
system.cpu.icache.overall_hits::total        70779397                       # number of overall hits
system.cpu.icache.ReadReq_misses::cpu.inst         4678                       # number of ReadReq misses
system.cpu.icache.ReadReq_misses::total          4678                       # number of ReadReq misses
system.cpu.icache.demand_misses::cpu.inst         4678                       # number of demand (read+write) misses
system.cpu.icache.demand_misses::total           4678                       # number of demand (read+write) misses
system.cpu.icache.overall_misses::cpu.inst         4678                       # number of overall misses
system.cpu.icache.overall_misses::total          4678                       # number of overall misses
system.cpu.icache.ReadReq_miss_latency::cpu.inst    198432500                       # number of ReadReq miss cycles
system.cpu.icache.ReadReq_miss_latency::total    198432500                       # number of ReadReq miss cycles
system.cpu.icache.demand_miss_latency::cpu.inst    198432500                       # number of demand (read+write) miss cycles
system.cpu.icache.demand_miss_latency::total    198432500                       # number of demand (read+write) miss cycles
system.cpu.icache.overall_miss_latency::cpu.inst    198432500                       # number of overall miss cycles
system.cpu.icache.overall_miss_latency::total    198432500                       # number of overall miss cycles
system.cpu.icache.ReadReq_accesses::cpu.inst     70784075                       # number of ReadReq accesses(hits+misses)
system.cpu.icache.ReadReq_accesses::total     70784075                       # number of ReadReq accesses(hits+misses)
system.cpu.icache.demand_accesses::cpu.inst     70784075                       # number of demand (read+write) accesses
system.cpu.icache.demand_accesses::total     70784075                       # number of demand (read+write) accesses
system.cpu.icache.overall_accesses::cpu.inst     70784075                       # number of overall (read+write) accesses
system.cpu.icache.overall_accesses::total     70784075                       # number of overall (read+write) accesses
system.cpu.icache.ReadReq_miss_rate::cpu.inst     0.000066                       # miss rate for ReadReq accesses
system.cpu.icache.ReadReq_miss_rate::total     0.000066                       # miss rate for ReadReq accesses
system.cpu.icache.demand_miss_rate::cpu.inst     0.000066                       # miss rate for demand accesses
system.cpu.icache.demand_miss_rate::total     0.000066                       # miss rate for demand accesses
system.cpu.icache.overall_miss_rate::cpu.inst     0.000066                       # miss rate for overall accesses
system.cpu.icache.overall_miss_rate::total     0.000066                       # miss rate for overall accesses
system.cpu.icache.ReadReq_avg_miss_latency::cpu.inst 42418.234288                       # average ReadReq miss latency
system.cpu.icache.ReadReq_avg_miss_latency::total 42418.234288                       # average ReadReq miss latency
system.cpu.icache.demand_avg_miss_latency::cpu.inst 42418.234288                       # average overall miss latency
system.cpu.icache.demand_avg_miss_latency::total 42418.234288                       # average overall miss latency
system.cpu.icache.overall_avg_miss_latency::cpu.inst 42418.234288                       # average overall miss latency
system.cpu.icache.overall_avg_miss_latency::total 42418.234288                       # average overall miss latency
system.cpu.icache.blocked_cycles::no_mshrs            0                       # number of cycles access was blocked
system.cpu.icache.blocked_cycles::no_targets            0                       # number of cycles access was blocked
system.cpu.icache.blocked::no_mshrs                 0                       # number of cycles access was blocked
system.cpu.icache.blocked::no_targets               0                       # number of cycles access was blocked
system.cpu.icache.avg_blocked_cycles::no_mshrs          nan                       # average number of cycles each access was blocked
system.cpu.icache.avg_blocked_cycles::no_targets          nan                       # average number of cycles each access was blocked
system.cpu.icache.writebacks::writebacks         2881                       # number of writebacks
system.cpu.icache.writebacks::total              2881                       # number of writebacks
system.cpu.icache.ReadReq_mshr_misses::cpu.inst         4678                       # number of ReadReq MSHR misses
system.cpu.icache.ReadReq_mshr_misses::total         4678                       # number of ReadReq MSHR misses
system.cpu.icache.demand_mshr_misses::cpu.inst         4678                       # number of demand (read+write) MSHR misses
system.cpu.icache.demand_mshr_misses::total         4678                       # number of demand (read+write) MSHR misses
system.cpu.icache.overall_mshr_misses::cpu.inst         4678                       # number of overall MSHR misses
system.cpu.icache.overall_mshr_misses::total         4678                       # number of overall MSHR misses
system.cpu.icache.ReadReq_mshr_miss_latency::cpu.inst    193755500                       # number of ReadReq MSHR miss cycles
system.cpu.icache.ReadReq_mshr_miss_latency::total    193755500                       # number of ReadReq MSHR miss cycles
system.cpu.icache.demand_mshr_miss_latency::cpu.inst    193755500                       # number of demand (read+write) MSHR miss cycles
system.cpu.icache.demand_mshr_miss_latency::total    193755500                       # number of demand (read+write) MSHR miss cycles
system.cpu.icache.overall_mshr_miss_latency::cpu.inst    193755500                       # number of overall MSHR miss cycles
system.cpu.icache.overall_mshr_miss_latency::total    193755500                       # number of overall MSHR miss cycles
system.cpu.icache.ReadReq_mshr_miss_rate::cpu.inst     0.000066                       # mshr miss rate for ReadReq accesses
system.cpu.icache.ReadReq_mshr_miss_rate::total     0.000066                       # mshr miss rate for ReadReq accesses
system.cpu.icache.demand_mshr_miss_rate::cpu.inst     0.000066                       # mshr miss rate for demand accesses
system.cpu.icache.demand_mshr_miss_rate::total     0.000066                       # mshr miss rate for demand accesses
system.cpu.icache.overall_mshr_miss_rate::cpu.inst     0.000066                       # mshr miss rate for overall accesses
system.cpu.icache.overall_mshr_miss_rate::total     0.000066                       # mshr miss rate for overall accesses
system.cpu.icache.ReadReq_avg_mshr_miss_latency::cpu.inst 41418.448055                       # average ReadReq mshr miss latency
system.cpu.icache.ReadReq_avg_mshr_miss_latency::total 41418.448055                       # average ReadReq mshr miss latency
system.cpu.icache.demand_avg_mshr_miss_latency::cpu.inst 41418.448055                       # average overall mshr miss latency
system.cpu.icache.demand_avg_mshr_miss_latency::total 41418.448055                       # average overall mshr miss latency
system.cpu.icache.overall_avg_mshr_miss_latency::cpu.inst 41418.448055                       # average overall mshr miss latency
system.cpu.icache.overall_avg_mshr_miss_latency::total 41418.448055                       # average overall mshr miss latency
system.cpu.l2cache.tags.replacements                0                       # number of replacements
system.cpu.l2cache.tags.tagsinuse         1999.548128                       # Cycle average of tags in use
system.cpu.l2cache.tags.total_refs               5178                       # Total number of references to valid blocks.
system.cpu.l2cache.tags.sampled_refs             2783                       # Sample count of references to valid blocks.
system.cpu.l2cache.tags.avg_refs             1.860582                       # Average number of references to valid blocks.
system.cpu.l2cache.tags.warmup_cycle                0                       # Cycle when the warmup percentage was hit.
system.cpu.l2cache.tags.occ_blocks::writebacks     3.029345                       # Average occupied blocks per requestor
system.cpu.l2cache.tags.occ_blocks::cpu.inst  1506.706963                       # Average occupied blocks per requestor
system.cpu.l2cache.tags.occ_blocks::cpu.data   489.811820                       # Average occupied blocks per requestor
system.cpu.l2cache.tags.occ_percent::writebacks     0.000092                       # Average percentage of cache occupancy
system.cpu.l2cache.tags.occ_percent::cpu.inst     0.045981                       # Average percentage of cache occupancy
system.cpu.l2cache.tags.occ_percent::cpu.data     0.014948                       # Average percentage of cache occupancy
system.cpu.l2cache.tags.occ_percent::total     0.061021                       # Average percentage of cache occupancy
system.cpu.l2cache.tags.occ_task_id_blocks::1024         2783                       # Occupied blocks per task id
system.cpu.l2cache.tags.age_task_id_blocks_1024::0           37                       # Occupied blocks per task id
system.cpu.l2cache.tags.age_task_id_blocks_1024::1           68                       # Occupied blocks per task id
system.cpu.l2cache.tags.age_task_id_blocks_1024::2          526                       # Occupied blocks per task id
system.cpu.l2cache.tags.age_task_id_blocks_1024::3          149                       # Occupied blocks per task id
system.cpu.l2cache.tags.age_task_id_blocks_1024::4         2003                       # Occupied blocks per task id
system.cpu.l2cache.tags.occ_task_id_percent::1024     0.084930                       # Percentage of cache occupancy per task id
system.cpu.l2cache.tags.tag_accesses            76554                       # Number of tag accesses
system.cpu.l2cache.tags.data_accesses           76554                       # Number of data accesses
system.cpu.l2cache.WritebackDirty_hits::writebacks           16                       # number of WritebackDirty hits
system.cpu.l2cache.WritebackDirty_hits::total           16                       # number of WritebackDirty hits
system.cpu.l2cache.WritebackClean_hits::writebacks         2559                       # number of WritebackClean hits
system.cpu.l2cache.WritebackClean_hits::total         2559                       # number of WritebackClean hits
system.cpu.l2cache.ReadExReq_hits::cpu.data            8                       # number of ReadExReq hits
system.cpu.l2cache.ReadExReq_hits::total            8                       # number of ReadExReq hits
system.cpu.l2cache.ReadCleanReq_hits::cpu.inst         2517                       # number of ReadCleanReq hits
system.cpu.l2cache.ReadCleanReq_hits::total         2517                       # number of ReadCleanReq hits
[...]
system.cpu.l2cache.WritebackClean_accesses::total         2559                       # number of WritebackClean accesses(hits+misses)
system.cpu.l2cache.ReadExReq_accesses::cpu.data         1099                       # number of ReadExReq accesses(hits+misses)
system.cpu.l2cache.ReadExReq_accesses::total         1099                       # number of ReadExReq accesses(hits+misses)
system.cpu.l2cache.ReadCleanReq_accesses::cpu.inst         4678                       # number of ReadCleanReq accesses(hits+misses)
system.cpu.l2cache.ReadCleanReq_accesses::total         4678                       # number of ReadCleanReq accesses(hits+misses)
system.cpu.l2cache.ReadSharedReq_accesses::cpu.data          712                       # number of ReadSharedReq accesses(hits+misses)
system.cpu.l2cache.ReadSharedReq_accesses::total          712                       # number of ReadSharedReq accesses(hits+misses)
system.cpu.l2cache.demand_accesses::cpu.inst         4678                       # number of demand (read+write) accesses
system.cpu.l2cache.demand_accesses::cpu.data         1811                       # number of demand (read+write) accesses
system.cpu.l2cache.demand_accesses::total         6489                       # number of demand (read+write) accesses
system.cpu.l2cache.overall_accesses::cpu.inst         4678                       # number of overall (read+write) accesses
system.cpu.l2cache.overall_accesses::cpu.data         1811                       # number of overall (read+write) accesses
system.cpu.l2cache.overall_accesses::total         6489                       # number of overall (read+write) accesses
system.cpu.l2cache.ReadExReq_miss_rate::cpu.data     0.992721                       # miss rate for ReadExReq accesses
system.cpu.l2cache.ReadExReq_miss_rate::total     0.992721                       # miss rate for ReadExReq accesses
system.cpu.l2cache.ReadCleanReq_miss_rate::cpu.inst     0.461950                       # miss rate for ReadCleanReq accesses
system.cpu.l2cache.ReadCleanReq_miss_rate::total     0.461950                       # miss rate for ReadCleanReq accesses
system.cpu.l2cache.ReadSharedReq_miss_rate::cpu.data     0.886236                       # miss rate for ReadSharedReq accesses
system.cpu.l2cache.ReadSharedReq_miss_rate::total     0.886236                       # miss rate for ReadSharedReq accesses
system.cpu.l2cache.demand_miss_rate::cpu.inst     0.461950                       # miss rate for demand accesses
system.cpu.l2cache.demand_miss_rate::cpu.data     0.950856                       # miss rate for demand accesses
system.cpu.l2cache.demand_miss_rate::total     0.598397                       # miss rate for demand accesses
system.cpu.l2cache.overall_miss_rate::cpu.inst     0.461950                       # miss rate for overall accesses
system.cpu.l2cache.overall_miss_rate::cpu.data     0.950856                       # miss rate for overall accesses
system.cpu.l2cache.overall_miss_rate::total     0.598397                       # miss rate for overall accesses
system.cpu.l2cache.ReadExReq_avg_miss_latency::cpu.data 76516.040330                       # average ReadExReq miss latency
system.cpu.l2cache.ReadExReq_avg_miss_latency::total 76516.040330                       # average ReadExReq miss latency
system.cpu.l2cache.ReadCleanReq_avg_miss_latency::cpu.inst 74010.874595                       # average ReadCleanReq miss latency
system.cpu.l2cache.ReadCleanReq_avg_miss_latency::total 74010.874595                       # average ReadCleanReq miss latency
system.cpu.l2cache.ReadSharedReq_avg_miss_latency::cpu.data 80225.039620                       # average ReadSharedReq miss latency
system.cpu.l2cache.ReadSharedReq_avg_miss_latency::total 80225.039620                       # average ReadSharedReq miss latency
system.cpu.l2cache.demand_avg_miss_latency::cpu.inst 74010.874595                       # average overall miss latency
system.cpu.l2cache.demand_avg_miss_latency::cpu.data 77875.145180                       # average overall miss latency
system.cpu.l2cache.demand_avg_miss_latency::total 75724.568633                       # average overall miss latency
system.cpu.l2cache.overall_avg_miss_latency::cpu.inst 74010.874595                       # average overall miss latency
system.cpu.l2cache.overall_avg_miss_latency::cpu.data 77875.145180                       # average overall miss latency
system.cpu.l2cache.overall_avg_miss_latency::total 75724.568633                       # average overall miss latency
system.cpu.l2cache.blocked_cycles::no_mshrs            0                       # number of cycles access was blocked
system.cpu.l2cache.blocked_cycles::no_targets            0                       # number of cycles access was blocked
system.cpu.l2cache.blocked::no_mshrs                0                       # number of cycles access was blocked
system.cpu.l2cache.blocked::no_targets              0                       # number of cycles access was blocked
system.cpu.l2cache.avg_blocked_cycles::no_mshrs          nan                       # average number of cycles each access was blocked
system.cpu.l2cache.avg_blocked_cycles::no_targets          nan                       # average number of cycles each access was blocked
system.cpu.l2cache.ReadCleanReq_mshr_hits::cpu.inst            2                       # number of ReadCleanReq MSHR hits
system.cpu.l2cache.ReadCleanReq_mshr_hits::total            2                       # number of ReadCleanReq MSHR hits
system.cpu.l2cache.ReadSharedReq_mshr_hits::cpu.data           14                       # number of ReadSharedReq MSHR hits
system.cpu.l2cache.ReadSharedReq_mshr_hits::total           14                       # number of ReadSharedReq MSHR hits
system.cpu.l2cache.demand_mshr_hits::cpu.inst            2                       # number of demand (read+write) MSHR hits
system.cpu.l2cache.demand_mshr_hits::cpu.data           14                       # number of demand (read+write) MSHR hits
system.cpu.l2cache.demand_mshr_hits::total           16                       # number of demand (read+write) MSHR hits
system.cpu.l2cache.overall_mshr_hits::cpu.inst            2                       # number of overall MSHR hits
system.cpu.l2cache.overall_mshr_hits::cpu.data           14                       # number of overall MSHR hits
system.cpu.l2cache.overall_mshr_hits::total           16                       # number of overall MSHR hits
system.cpu.l2cache.ReadExReq_mshr_misses::cpu.data         1091                       # number of ReadExReq MSHR misses
system.cpu.l2cache.ReadExReq_mshr_misses::total         1091                       # number of ReadExReq MSHR misses
system.cpu.l2cache.ReadCleanReq_mshr_misses::cpu.inst         2159                       # number of ReadCleanReq MSHR misses
system.cpu.l2cache.ReadCleanReq_mshr_misses::total         2159                       # number of ReadCleanReq MSHR misses
system.cpu.l2cache.ReadSharedReq_mshr_misses::cpu.data          617                       # number of ReadSharedReq MSHR misses
system.cpu.l2cache.ReadSharedReq_mshr_misses::total          617                       # number of ReadSharedReq MSHR misses
system.cpu.l2cache.demand_mshr_misses::cpu.inst         2159                       # number of demand (read+write) MSHR misses
system.cpu.l2cache.demand_mshr_misses::cpu.data         1708                       # number of demand (read+write) MSHR misses
system.cpu.l2cache.demand_mshr_misses::total         3867                       # number of demand (read+write) MSHR misses
system.cpu.l2cache.overall_mshr_misses::cpu.inst         2159                       # number of overall MSHR misses
system.cpu.l2cache.overall_mshr_misses::cpu.data         1708                       # number of overall MSHR misses
system.cpu.l2cache.overall_mshr_misses::total         3867                       # number of overall MSHR misses
system.cpu.l2cache.ReadExReq_mshr_miss_latency::cpu.data     72569000                       # number of ReadExReq MSHR miss cycles
system.cpu.l2cache.ReadExReq_mshr_miss_latency::total     72569000                       # number of ReadExReq MSHR miss cycles
system.cpu.l2cache.ReadCleanReq_mshr_miss_latency::cpu.inst    138134000                       # number of ReadCleanReq MSHR miss cycles
system.cpu.l2cache.ReadCleanReq_mshr_miss_latency::total    138134000                       # number of ReadCleanReq MSHR miss cycles
system.cpu.l2cache.ReadSharedReq_mshr_miss_latency::cpu.data     43490000                       # number of ReadSharedReq MSHR miss cycles
system.cpu.l2cache.ReadSharedReq_mshr_miss_latency::total     43490000                       # number of ReadSharedReq MSHR miss cycles
system.cpu.l2cache.demand_mshr_miss_latency::cpu.inst    138134000                       # number of demand (read+write) MSHR miss cycles
system.cpu.l2cache.demand_mshr_miss_latency::cpu.data    116059000                       # number of demand (read+write) MSHR miss cycles
system.cpu.l2cache.demand_mshr_miss_latency::total    254193000                       # number of demand (read+write) MSHR miss cycles
system.cpu.l2cache.overall_mshr_miss_latency::cpu.inst    138134000                       # number of overall MSHR miss cycles
system.cpu.l2cache.overall_mshr_miss_latency::cpu.data    116059000                       # number of overall MSHR miss cycles
system.cpu.l2cache.overall_mshr_miss_latency::total    254193000                       # number of overall MSHR miss cycles
system.cpu.l2cache.ReadExReq_mshr_miss_rate::cpu.data     0.992721                       # mshr miss rate for ReadExReq accesses
system.cpu.l2cache.ReadExReq_mshr_miss_rate::total     0.992721                       # mshr miss rate for ReadExReq accesses
system.cpu.l2cache.ReadCleanReq_mshr_miss_rate::cpu.inst     0.461522                       # mshr miss rate for ReadCleanReq accesses
system.cpu.l2cache.ReadCleanReq_mshr_miss_rate::total     0.461522                       # mshr miss rate for ReadCleanReq accesses
system.cpu.l2cache.ReadSharedReq_mshr_miss_rate::cpu.data     0.866573                       # mshr miss rate for ReadSharedReq accesses
system.cpu.l2cache.ReadSharedReq_mshr_miss_rate::total     0.866573                       # mshr miss rate for ReadSharedReq accesses
system.cpu.l2cache.demand_mshr_miss_rate::cpu.inst     0.461522                       # mshr miss rate for demand accesses
system.cpu.l2cache.demand_mshr_miss_rate::cpu.data     0.943125                       # mshr miss rate for demand accesses
system.cpu.l2cache.demand_mshr_miss_rate::total     0.595932                       # mshr miss rate for demand accesses
system.cpu.l2cache.overall_mshr_miss_rate::cpu.inst     0.461522                       # mshr miss rate for overall accesses
system.cpu.l2cache.overall_mshr_miss_rate::cpu.data     0.943125                       # mshr miss rate for overall accesses
system.cpu.l2cache.overall_mshr_miss_rate::total     0.595932                       # mshr miss rate for overall accesses
system.cpu.l2cache.ReadExReq_avg_mshr_miss_latency::cpu.data 66516.040330                       # average ReadExReq mshr miss latency
system.cpu.l2cache.ReadExReq_avg_mshr_miss_latency::total 66516.040330                       # average ReadExReq mshr miss latency
system.cpu.l2cache.ReadCleanReq_avg_mshr_miss_latency::cpu.inst 63980.546549                       # average ReadCleanReq mshr miss latency
system.cpu.l2cache.ReadCleanReq_avg_mshr_miss_latency::total 63980.546549                       # average ReadCleanReq mshr miss latency
system.cpu.l2cache.ReadSharedReq_avg_mshr_miss_latency::cpu.data 70486.223663                       # average ReadSharedReq mshr miss latency
system.cpu.l2cache.ReadSharedReq_avg_mshr_miss_latency::total 70486.223663                       # average ReadSharedReq mshr miss latency
system.cpu.l2cache.demand_avg_mshr_miss_latency::cpu.inst 63980.546549                       # average overall mshr miss latency
system.cpu.l2cache.demand_avg_mshr_miss_latency::cpu.data 67950.234192                       # average overall mshr miss latency
system.cpu.l2cache.demand_avg_mshr_miss_latency::total 65733.902250                       # average overall mshr miss latency
system.cpu.l2cache.overall_avg_mshr_miss_latency::cpu.inst 63980.546549                       # average overall mshr miss latency
system.cpu.l2cache.overall_avg_mshr_miss_latency::cpu.data 67950.234192                       # average overall mshr miss latency
system.cpu.l2cache.overall_avg_mshr_miss_latency::total 65733.902250                       # average overall mshr miss latency
system.cpu.toL2Bus.snoop_filter.tot_requests         9412                       # Total number of requests made to the snoop filter.
system.cpu.toL2Bus.snoop_filter.hit_single_requests         3057                       # Number of requests hitting in the snoop filter with a single holder of the requested data.
system.cpu.toL2Bus.snoop_filter.hit_multi_requests          328                       # Number of requests hitting in the snoop filter with multiple (>1) holders of the requested data.
system.cpu.toL2Bus.snoop_filter.tot_snoops            0                       # Total number of snoops made to the snoop filter.
system.cpu.toL2Bus.snoop_filter.hit_single_snoops            0                       # Number of snoops hitting in the snoop filter with a single holder of the requested data.
system.cpu.toL2Bus.snoop_filter.hit_multi_snoops            0                       # Number of snoops hitting in the snoop filter with multiple (>1) holders of the requested data.
system.cpu.toL2Bus.trans_dist::ReadResp          5389                       # Transaction distribution
system.cpu.toL2Bus.trans_dist::WritebackDirty           16                       # Transaction distribution
system.cpu.toL2Bus.trans_dist::WritebackClean         2881                       # Transaction distribution
system.cpu.toL2Bus.trans_dist::CleanEvict           26                       # Transaction distribution
system.cpu.toL2Bus.trans_dist::ReadExReq         1099                       # Transaction distribution
system.cpu.toL2Bus.trans_dist::ReadExResp         1099                       # Transaction distribution
system.cpu.toL2Bus.trans_dist::ReadCleanReq         4678                       # Transaction distribution
system.cpu.toL2Bus.trans_dist::ReadSharedReq          712                       # Transaction distribution
system.cpu.toL2Bus.pkt_count_system.cpu.icache.mem_side::system.cpu.l2cache.cpu_side        12236                       # Packet count per connected master and slave (bytes)
system.cpu.toL2Bus.pkt_count_system.cpu.dcache.mem_side::system.cpu.l2cache.cpu_side         3664                       # Packet count per connected master and slave (bytes)
system.cpu.toL2Bus.pkt_count::total             15900                       # Packet count per connected master and slave (bytes)
system.cpu.toL2Bus.pkt_size_system.cpu.icache.mem_side::system.cpu.l2cache.cpu_side       483712                       # Cumulative packet size per connected master and slave (bytes)
system.cpu.toL2Bus.pkt_size_system.cpu.dcache.mem_side::system.cpu.l2cache.cpu_side       116928                       # Cumulative packet size per connected master and slave (bytes)
system.cpu.toL2Bus.pkt_size::total             600640                       # Cumulative packet size per connected master and slave (bytes)
system.cpu.toL2Bus.snoops                           0                       # Total snoops (count)
system.cpu.toL2Bus.snoop_fanout::samples         6489                       # Request fanout histogram
system.cpu.toL2Bus.snoop_fanout::mean        0.071197                       # Request fanout histogram
system.cpu.toL2Bus.snoop_fanout::stdev       0.257174                       # Request fanout histogram
system.cpu.toL2Bus.snoop_fanout::underflows            0      0.00%      0.00% # Request fanout histogram
system.cpu.toL2Bus.snoop_fanout::0               6027     92.88%     92.88% # Request fanout histogram
system.cpu.toL2Bus.snoop_fanout::1                462      7.12%    100.00% # Request fanout histogram
system.cpu.toL2Bus.snoop_fanout::2                  0      0.00%    100.00% # Request fanout histogram
system.cpu.toL2Bus.snoop_fanout::overflows            0      0.00%    100.00% # Request fanout histogram
system.cpu.toL2Bus.snoop_fanout::min_value            0                       # Request fanout histogram
system.cpu.toL2Bus.snoop_fanout::max_value            1                       # Request fanout histogram
system.cpu.toL2Bus.snoop_fanout::total           6489                       # Request fanout histogram
system.cpu.toL2Bus.reqLayer0.occupancy        7603000                       # Layer occupancy (ticks)
system.cpu.toL2Bus.reqLayer0.utilization          0.0                       # Layer utilization (%)
system.cpu.toL2Bus.respLayer0.occupancy       7016498                       # Layer occupancy (ticks)
system.cpu.toL2Bus.respLayer0.utilization          0.0                       # Layer utilization (%)
system.cpu.toL2Bus.respLayer1.occupancy       2723486                       # Layer occupancy (ticks)
system.cpu.toL2Bus.respLayer1.utilization          0.0                       # Layer utilization (%)
system.membus.trans_dist::ReadResp               2775                       # Transaction distribution
system.membus.trans_dist::ReadExReq              1091                       # Transaction distribution
system.membus.trans_dist::ReadExResp             1091                       # Transaction distribution
system.membus.trans_dist::ReadSharedReq          2775                       # Transaction distribution
system.membus.pkt_count_system.cpu.l2cache.mem_side::system.physmem.port         7732                       # Packet count per connected master and slave (bytes)
system.membus.pkt_count::total                   7732                       # Packet count per connected master and slave (bytes)
system.membus.pkt_size_system.cpu.l2cache.mem_side::system.physmem.port       247424                       # Cumulative packet size per connected master and slave (bytes)
system.membus.pkt_size::total                  247424                       # Cumulative packet size per connected master and slave (bytes)
system.membus.snoops                                0                       # Total snoops (count)
system.membus.snoop_fanout::samples              3866                       # Request fanout histogram
system.membus.snoop_fanout::mean                    0                       # Request fanout histogram
system.membus.snoop_fanout::stdev                   0                       # Request fanout histogram
system.membus.snoop_fanout::underflows              0      0.00%      0.00% # Request fanout histogram
system.membus.snoop_fanout::0                    3866    100.00%    100.00% # Request fanout histogram
system.membus.snoop_fanout::1                       0      0.00%    100.00% # Request fanout histogram
system.membus.snoop_fanout::overflows               0      0.00%    100.00% # Request fanout histogram
system.membus.snoop_fanout::min_value               0                       # Request fanout histogram
system.membus.snoop_fanout::max_value               0                       # Request fanout histogram
system.membus.snoop_fanout::total                3866                       # Request fanout histogram
system.membus.reqLayer0.occupancy             4516500                       # Layer occupancy (ticks)
system.membus.reqLayer0.utilization               0.0                       # Layer utilization (%)
system.membus.respLayer1.occupancy           20548250                       # Layer occupancy (ticks)
system.membus.respLayer1.utilization              0.0                       # Layer utilization (%)

---------- End Simulation Statistics   ----------
