
---------- Begin Simulation Statistics ----------
sim_seconds                                  0.058328                       # Number of seconds simulated
sim_ticks                                 58328364500                       # Number of ticks simulated
final_tick                                58328364500                       # Number of ticks from beginning of simulation (restored from checkpoints and never reset)
sim_freq                                 1000000000000                       # Frequency of simulated ticks
host_inst_rate                                 135523                       # Simulator instruction rate (inst/s)
host_op_rate                                   136198                       # Simulator op (including micro ops) rate (op/s)
host_tick_rate                               87259482                       # Simulator tick rate (ticks/s)
host_mem_usage                                 492508                       # Number of bytes of host memory used
host_seconds                                   668.45                       # Real time elapsed on the host
sim_insts                                    90589799                       # Number of instructions simulated
sim_ops                                      91041030                       # Number of ops (including micro ops) simulated
system.voltage_domain.voltage                       1                       # Voltage in Volts
system.clk_domain.clock                          1000                       # Clock period in ticks
system.physmem.pwrStateResidencyTicks::UNDEFINED  58328364500                       # Cumulative time (in ticks) in various power states
system.physmem.bytes_read::cpu.inst             44736                       # Number of bytes read from this memory
system.physmem.bytes_read::cpu.data            218752                       # Number of bytes read from this memory
system.physmem.bytes_read::cpu.l2cache.prefetcher       921408                       # Number of bytes read from this memory
system.physmem.bytes_read::total              1184896                       # Number of bytes read from this memory
system.physmem.bytes_inst_read::cpu.inst        44736                       # Number of instructions bytes read from this memory
system.physmem.bytes_inst_read::total           44736                       # Number of instructions bytes read from this memory
system.physmem.bytes_written::writebacks         5696                       # Number of bytes written to this memory
system.physmem.bytes_written::total              5696                       # Number of bytes written to this memory
system.physmem.num_reads::cpu.inst                699                       # Number of read requests responded to by this memory
system.physmem.num_reads::cpu.data               3418                       # Number of read requests responded to by this memory
system.physmem.num_reads::cpu.l2cache.prefetcher        14397                       # Number of read requests responded to by this memory
system.physmem.num_reads::total                 18514                       # Number of read requests responded to by this memory
system.physmem.num_writes::writebacks              89                       # Number of write requests responded to by this memory
system.physmem.num_writes::total                   89                       # Number of write requests responded to by this memory
system.physmem.bw_read::cpu.inst               766968                       # Total read bandwidth from this memory (bytes/s)
system.physmem.bw_read::cpu.data              3750354                       # Total read bandwidth from this memory (bytes/s)
system.physmem.bw_read::cpu.l2cache.prefetcher     15796911                       # Total read bandwidth from this memory (bytes/s)
system.physmem.bw_read::total                20314233                       # Total read bandwidth from this memory (bytes/s)
system.physmem.bw_inst_read::cpu.inst          766968                       # Instruction read bandwidth from this memory (bytes/s)
system.physmem.bw_inst_read::total             766968                       # Instruction read bandwidth from this memory (bytes/s)
system.physmem.bw_write::writebacks             97654                       # Write bandwidth from this memory (bytes/s)
system.physmem.bw_write::total                  97654                       # Write bandwidth from this memory (bytes/s)
system.physmem.bw_total::writebacks             97654                       # Total bandwidth to/from this memory (bytes/s)
system.physmem.bw_total::cpu.inst              766968                       # Total bandwidth to/from this memory (bytes/s)
system.physmem.bw_total::cpu.data             3750354                       # Total bandwidth to/from this memory (bytes/s)
system.physmem.bw_total::cpu.l2cache.prefetcher     15796911                       # Total bandwidth to/from this memory (bytes/s)
system.physmem.bw_total::total               20411887                       # Total bandwidth to/from this memory (bytes/s)
system.physmem.readReqs                         18515                       # Number of read requests accepted
system.physmem.writeReqs                           89                       # Number of write requests accepted
system.physmem.readBursts                       18515                       # Number of DRAM read bursts, including those serviced by the write queue
system.physmem.writeBursts                         89                       # Number of DRAM write bursts, including those merged in the write queue
system.physmem.bytesReadDRAM                  1179904                       # Total number of bytes read from DRAM
system.physmem.bytesReadWrQ                      5056                       # Total number of bytes read from write queue
system.physmem.bytesWritten                      4480                       # Total number of bytes written to DRAM
system.physmem.bytesReadSys                   1184960                       # Total read bytes from the system interface side
system.physmem.bytesWrittenSys                   5696                       # Total written bytes from the system interface side
system.physmem.servicedByWrQ                       79                       # Number of DRAM read bursts serviced by the write queue
system.physmem.mergedWrBursts                       2                       # Number of DRAM write bursts merged with an existing one
system.physmem.neitherReadNorWriteReqs              0                       # Number of requests that are neither read nor write
system.physmem.perBankRdBursts::0                3247                       # Per bank write bursts
system.physmem.perBankRdBursts::1                 921                       # Per bank write bursts
system.physmem.perBankRdBursts::2                 949                       # Per bank write bursts
system.physmem.perBankRdBursts::3                1031                       # Per bank write bursts
system.physmem.perBankRdBursts::4                1061                       # Per bank write bursts
system.physmem.perBankRdBursts::5                1117                       # Per bank write bursts
system.physmem.perBankRdBursts::6                1095                       # Per bank write bursts
system.physmem.perBankRdBursts::7                1097                       # Per bank write bursts
system.physmem.perBankRdBursts::8                1024                       # Per bank write bursts
system.physmem.perBankRdBursts::9                 962                       # Per bank write bursts
system.physmem.perBankRdBursts::10                932                       # Per bank write bursts
system.physmem.perBankRdBursts::11                899                       # Per bank write bursts
system.physmem.perBankRdBursts::12                902                       # Per bank write bursts
system.physmem.perBankRdBursts::13                896                       # Per bank write bursts
system.physmem.perBankRdBursts::14               1399                       # Per bank write bursts
system.physmem.perBankRdBursts::15                904                       # Per bank write bursts
system.physmem.perBankWrBursts::0                   0                       # Per bank write bursts
system.physmem.perBankWrBursts::1                   0                       # Per bank write bursts
system.physmem.perBankWrBursts::2                   2                       # Per bank write bursts
system.physmem.perBankWrBursts::3                   1                       # Per bank write bursts
system.physmem.perBankWrBursts::4                   2                       # Per bank write bursts
system.physmem.perBankWrBursts::5                   9                       # Per bank write bursts
system.physmem.perBankWrBursts::6                  10                       # Per bank write bursts
system.physmem.perBankWrBursts::7                   8                       # Per bank write bursts
system.physmem.perBankWrBursts::8                   2                       # Per bank write bursts
system.physmem.perBankWrBursts::9                   0                       # Per bank write bursts
system.physmem.perBankWrBursts::10                  3                       # Per bank write bursts
system.physmem.perBankWrBursts::11                  3                       # Per bank write bursts
system.physmem.perBankWrBursts::12                  2                       # Per bank write bursts
system.physmem.perBankWrBursts::13                  9                       # Per bank write bursts
system.physmem.perBankWrBursts::14                 13                       # Per bank write bursts
system.physmem.perBankWrBursts::15                  6                       # Per bank write bursts
system.physmem.numRdRetry                           0                       # Number of times read queue was full causing retry
system.physmem.numWrRetry                           0                       # Number of times write queue was full causing retry
system.physmem.totGap                     58328356000                       # Total gap between requests
system.physmem.readPktSize::0                       0                       # Read request sizes (log2)
system.physmem.readPktSize::1                       0                       # Read request sizes (log2)
system.physmem.readPktSize::2                       0                       # Read request sizes (log2)
system.physmem.readPktSize::3                       0                       # Read request sizes (log2)
system.physmem.readPktSize::4                       0                       # Read request sizes (log2)
system.physmem.readPktSize::5                       0                       # Read request sizes (log2)
system.physmem.readPktSize::6                   18515                       # Read request sizes (log2)
system.physmem.writePktSize::0                      0                       # Write request sizes (log2)
system.physmem.writePktSize::1                      0                       # Write request sizes (log2)
system.physmem.writePktSize::2                      0                       # Write request sizes (log2)
system.physmem.writePktSize::3                      0                       # Write request sizes (log2)
system.physmem.writePktSize::4                      0                       # Write request sizes (log2)
system.physmem.writePktSize::5                      0                       # Write request sizes (log2)
system.physmem.writePktSize::6                     89                       # Write request sizes (log2)
system.physmem.rdQLenPdf::0                     13470                       # What read queue length does an incoming req see
system.physmem.rdQLenPdf::1                      2526                       # What read queue length does an incoming req see
system.physmem.rdQLenPdf::2                       477                       # What read queue length does an incoming req see
system.physmem.rdQLenPdf::3                       410                       # What read queue length does an incoming req see
system.physmem.rdQLenPdf::4                       307                       # What read queue length does an incoming req see
system.physmem.rdQLenPdf::5                       301                       # What read queue length does an incoming req see
system.physmem.rdQLenPdf::6                       310                       # What read queue length does an incoming req see
system.physmem.rdQLenPdf::7                       283                       # What read queue length does an incoming req see
system.physmem.rdQLenPdf::8                       292                       # What read queue length does an incoming req see
system.physmem.rdQLenPdf::9                        60                       # What read queue length does an incoming req see
system.physmem.rdQLenPdf::10                        0                       # What read queue length does an incoming req see
system.physmem.rdQLenPdf::11                        0                       # What read queue length does an incoming req see
system.physmem.rdQLenPdf::12                        0                       # What read queue length does an incoming req see
system.physmem.rdQLenPdf::13                        0                       # What read queue length does an incoming req see
system.physmem.rdQLenPdf::14                        0                       # What read queue length does an incoming req see
system.physmem.rdQLenPdf::15                        0                       # What read queue length does an incoming req see
system.physmem.rdQLenPdf::16                        0                       # What read queue length does an incoming req see
system.physmem.rdQLenPdf::17                        0                       # What read queue length does an incoming req see
system.physmem.rdQLenPdf::18                        0                       # What read queue length does an incoming req see
system.physmem.rdQLenPdf::19                        0                       # What read queue length does an incoming req see
system.physmem.rdQLenPdf::20                        0                       # What read queue length does an incoming req see
system.physmem.rdQLenPdf::21                        0                       # What read queue length does an incoming req see
system.physmem.rdQLenPdf::22                        0                       # What read queue length does an incoming req see
system.physmem.rdQLenPdf::23                        0                       # What read queue length does an incoming req see
system.physmem.rdQLenPdf::24                        0                       # What read queue length does an incoming req see
system.physmem.rdQLenPdf::25                        0                       # What read queue length does an incoming req see
system.physmem.rdQLenPdf::26                        0                       # What read queue length does an incoming req see
system.physmem.rdQLenPdf::27                        0                       # What read queue length does an incoming req see
system.physmem.rdQLenPdf::28                        0                       # What read queue length does an incoming req see
system.physmem.rdQLenPdf::29                        0                       # What read queue length does an incoming req see
system.physmem.rdQLenPdf::30                        0                       # What read queue length does an incoming req see
system.physmem.rdQLenPdf::31                        0                       # What read queue length does an incoming req see
system.physmem.wrQLenPdf::0                         1                       # What write queue length does an incoming req see
system.physmem.wrQLenPdf::1                         1                       # What write queue length does an incoming req see
system.physmem.wrQLenPdf::2                         1                       # What write queue length does an incoming req see
system.physmem.wrQLenPdf::3                         1                       # What write queue length does an incoming req see
system.physmem.wrQLenPdf::4                         1                       # What write queue length does an incoming req see
system.physmem.wrQLenPdf::5                         1                       # What write queue length does an incoming req see
system.physmem.wrQLenPdf::6                         1                       # What write queue length does an incoming req see
system.physmem.wrQLenPdf::7                         1                       # What write queue length does an incoming req see
system.physmem.wrQLenPdf::8                         1                       # What write queue length does an incoming req see
system.physmem.wrQLenPdf::9                         1                       # What write queue length does an incoming req see
system.physmem.wrQLenPdf::10                        1                       # What write queue length does an incoming req see
system.physmem.wrQLenPdf::11                        1                       # What write queue length does an incoming req see
system.physmem.wrQLenPdf::12                        1                       # What write queue length does an incoming req see
system.physmem.wrQLenPdf::13                        1                       # What write queue length does an incoming req see
system.physmem.wrQLenPdf::14                        1                       # What write queue length does an incoming req see
system.physmem.wrQLenPdf::15                        4                       # What write queue length does an incoming req see
system.physmem.wrQLenPdf::16                        4                       # What write queue length does an incoming req see
system.physmem.wrQLenPdf::17                        4                       # What write queue length does an incoming req see
system.physmem.wrQLenPdf::18                        4                       # What write queue length does an incoming req see
system.physmem.wrQLenPdf::19                        4                       # What write queue length does an incoming req see
system.physmem.wrQLenPdf::20                        4                       # What write queue length does an incoming req see
system.physmem.wrQLenPdf::21                        4                       # What write queue length does an incoming req see
system.physmem.wrQLenPdf::22                        4                       # What write queue length does an incoming req see
system.physmem.wrQLenPdf::23                        4                       # What write queue length does an incoming req see
system.physmem.wrQLenPdf::24                        4                       # What write queue length does an incoming req see
system.physmem.wrQLenPdf::25                        4                       # What write queue length does an incoming req see
system.physmem.wrQLenPdf::26                        4                       # What write queue length does an incoming req see
system.physmem.wrQLenPdf::27                        4                       # What write queue length does an incoming req see
system.physmem.wrQLenPdf::28                        4                       # What write queue length does an incoming req see
system.physmem.wrQLenPdf::29                        4                       # What write queue length does an incoming req see
system.physmem.wrQLenPdf::30                        4                       # What write queue length does an incoming req see
system.physmem.wrQLenPdf::31                        4                       # What write queue length does an incoming req see
system.physmem.wrQLenPdf::32                        4                       # What write queue length does an incoming req see
system.physmem.wrQLenPdf::33                        0                       # What write queue length does an incoming req see
system.physmem.wrQLenPdf::34                        0                       # What write queue length does an incoming req see
system.physmem.wrQLenPdf::35                        0                       # What write queue length does an incoming req see
system.physmem.wrQLenPdf::36                        0                       # What write queue length does an incoming req see
system.physmem.wrQLenPdf::37                        0                       # What write queue length does an incoming req see
system.physmem.wrQLenPdf::38                        0                       # What write queue length does an incoming req see
system.physmem.wrQLenPdf::39                        0                       # What write queue length does an incoming req see
system.physmem.wrQLenPdf::40                        0                       # What write queue length does an incoming req see
system.physmem.wrQLenPdf::41                        0                       # What write queue length does an incoming req see
system.physmem.wrQLenPdf::42                        0                       # What write queue length does an incoming req see
system.physmem.wrQLenPdf::43                        0                       # What write queue length does an incoming req see
system.physmem.wrQLenPdf::44                        0                       # What write queue length does an incoming req see
system.physmem.wrQLenPdf::45                        0                       # What write queue length does an incoming req see
system.physmem.wrQLenPdf::46                        0                       # What write queue length does an incoming req see
system.physmem.wrQLenPdf::47                        0                       # What write queue length does an incoming req see
system.physmem.wrQLenPdf::48                        0                       # What write queue length does an incoming req see
system.physmem.wrQLenPdf::49                        0                       # What write queue length does an incoming req see
system.physmem.wrQLenPdf::50                        0                       # What write queue length does an incoming req see
system.physmem.wrQLenPdf::51                        0                       # What write queue length does an incoming req see
system.physmem.wrQLenPdf::52                        0                       # What write queue length does an incoming req see
system.physmem.wrQLenPdf::53                        0                       # What write queue length does an incoming req see
system.physmem.wrQLenPdf::54                        0                       # What write queue length does an incoming req see
system.physmem.wrQLenPdf::55                        0                       # What write queue length does an incoming req see
system.physmem.wrQLenPdf::56                        0                       # What write queue length does an incoming req see
system.physmem.wrQLenPdf::57                        0                       # What write queue length does an incoming req see
system.physmem.wrQLenPdf::58                        0                       # What write queue length does an incoming req see
system.physmem.wrQLenPdf::59                        0                       # What write queue length does an incoming req see
system.physmem.wrQLenPdf::60                        0                       # What write queue length does an incoming req see
system.physmem.wrQLenPdf::61                        0                       # What write queue length does an incoming req see
system.physmem.wrQLenPdf::62                        0                       # What write queue length does an incoming req see
system.physmem.wrQLenPdf::63                        0                       # What write queue length does an incoming req see
system.physmem.bytesPerActivate::samples         3107                       # Bytes accessed per row activation
system.physmem.bytesPerActivate::mean      380.704216                       # Bytes accessed per row activation
system.physmem.bytesPerActivate::gmean     201.847183                       # Bytes accessed per row activation
system.physmem.bytesPerActivate::stdev     402.867268                       # Bytes accessed per row activation
system.physmem.bytesPerActivate::0-127           1088     35.02%     35.02% # Bytes accessed per row activation
system.physmem.bytesPerActivate::128-255          865     27.84%     62.86% # Bytes accessed per row activation
system.physmem.bytesPerActivate::256-383           94      3.03%     65.88% # Bytes accessed per row activation
system.physmem.bytesPerActivate::384-511           72      2.32%     68.20% # Bytes accessed per row activation
system.physmem.bytesPerActivate::512-639           65      2.09%     70.29% # Bytes accessed per row activation
system.physmem.bytesPerActivate::640-767           68      2.19%     72.48% # Bytes accessed per row activation
system.physmem.bytesPerActivate::768-895           56      1.80%     74.28% # Bytes accessed per row activation
system.physmem.bytesPerActivate::896-1023           51      1.64%     75.93% # Bytes accessed per row activation
system.physmem.bytesPerActivate::1024-1151          748     24.07%    100.00% # Bytes accessed per row activation
system.physmem.bytesPerActivate::total           3107                       # Bytes accessed per row activation
system.physmem.rdPerTurnAround::samples             4                       # Reads before turning the bus around for writes
system.physmem.rdPerTurnAround::mean             4608                       # Reads before turning the bus around for writes
system.physmem.rdPerTurnAround::gmean     1496.681558                       # Reads before turning the bus around for writes
system.physmem.rdPerTurnAround::stdev     7484.705695                       # Reads before turning the bus around for writes
system.physmem.rdPerTurnAround::0-511               1     25.00%     25.00% # Reads before turning the bus around for writes
system.physmem.rdPerTurnAround::512-1023            1     25.00%     50.00% # Reads before turning the bus around for writes
system.physmem.rdPerTurnAround::1536-2047            1     25.00%     75.00% # Reads before turning the bus around for writes
system.physmem.rdPerTurnAround::15360-15871            1     25.00%    100.00% # Reads before turning the bus around for writes
system.physmem.rdPerTurnAround::total               4                       # Reads before turning the bus around for writes
system.physmem.wrPerTurnAround::samples             4                       # Writes before turning the bus around for reads
system.physmem.wrPerTurnAround::mean        17.500000                       # Writes before turning the bus around for reads
system.physmem.wrPerTurnAround::gmean       17.477704                       # Writes before turning the bus around for reads
system.physmem.wrPerTurnAround::stdev               1                       # Writes before turning the bus around for reads
system.physmem.wrPerTurnAround::16                  1     25.00%     25.00% # Writes before turning the bus around for reads
system.physmem.wrPerTurnAround::18                  3     75.00%    100.00% # Writes before turning the bus around for reads
system.physmem.wrPerTurnAround::total               4                       # Writes before turning the bus around for reads
system.physmem.totQLat                      204802662                       # Total ticks spent queuing
system.physmem.totMemAccLat                 550477662                       # Total ticks spent from burst creation until serviced by the DRAM
system.physmem.totBusLat                     92180000                       # Total ticks spent in databus transfers
system.physmem.avgQLat                       11108.84                       # Average queueing delay per DRAM burst
system.physmem.avgBusLat                      5000.00                       # Average bus latency per DRAM burst
system.physmem.avgMemAccLat                  29858.84                       # Average memory access latency per DRAM burst
system.physmem.avgRdBW                          20.23                       # Average DRAM read bandwidth in MiByte/s
system.physmem.avgWrBW                           0.08                       # Average achieved write bandwidth in MiByte/s
system.physmem.avgRdBWSys                       20.32                       # Average system read bandwidth in MiByte/s
system.physmem.avgWrBWSys                        0.10                       # Average system write bandwidth in MiByte/s
system.physmem.peakBW                        12800.00                       # Theoretical peak bandwidth in MiByte/s
system.physmem.busUtil                           0.16                       # Data bus utilization in percentage
system.physmem.busUtilRead                       0.16                       # Data bus utilization in percentage for reads
system.physmem.busUtilWrite                      0.00                       # Data bus utilization in percentage for writes
system.physmem.avgRdQLen                         1.02                       # Average read queue length when enqueuing
system.physmem.avgWrQLen                        22.38                       # Average write queue length when enqueuing
system.physmem.readRowHits                      15382                       # Number of row buffer hits during reads
system.physmem.writeRowHits                        10                       # Number of row buffer hits during writes
system.physmem.readRowHitRate                   83.43                       # Row buffer hit rate for reads
system.physmem.writeRowHitRate                  11.49                       # Row buffer hit rate for writes
system.physmem.avgGap                      3135258.87                       # Average gap between requests
system.physmem.pageHitRate                      83.10                       # Row buffer hit rate, read and write combined
system.physmem_0.actEnergy                   17803800                       # Energy for activate commands per rank (pJ)
system.physmem_0.preEnergy                    9714375                       # Energy for precharge commands per rank (pJ)
system.physmem_0.readEnergy                  81876600                       # Energy for read commands per rank (pJ)
system.physmem_0.writeEnergy                   162000                       # Energy for write commands per rank (pJ)
system.physmem_0.refreshEnergy             3809622960                       # Energy for refresh commands per rank (pJ)
system.physmem_0.actBackEnergy             6575109030                       # Energy for active background per rank (pJ)
system.physmem_0.preBackEnergy            29228595750                       # Energy for precharge background per rank (pJ)
system.physmem_0.totalEnergy              39722884515                       # Total energy per rank (pJ)
system.physmem_0.averagePower              681.036990                       # Core power per rank (mW)
system.physmem_0.memoryStateTime::IDLE    48583441495                       # Time in different power states
system.physmem_0.memoryStateTime::REF      1947660000                       # Time in different power states
system.physmem_0.memoryStateTime::PRE_PDN            0                       # Time in different power states
system.physmem_0.memoryStateTime::ACT      7795971005                       # Time in different power states
system.physmem_0.memoryStateTime::ACT_PDN            0                       # Time in different power states
system.physmem_1.actEnergy                    5609520                       # Energy for activate commands per rank (pJ)
system.physmem_1.preEnergy                    3060750                       # Energy for precharge commands per rank (pJ)
system.physmem_1.readEnergy                  61760400                       # Energy for read commands per rank (pJ)
system.physmem_1.writeEnergy                   187920                       # Energy for write commands per rank (pJ)
system.physmem_1.refreshEnergy             3809622960                       # Energy for refresh commands per rank (pJ)
system.physmem_1.actBackEnergy             2425538385                       # Energy for active background per rank (pJ)
system.physmem_1.preBackEnergy            32868570000                       # Energy for precharge background per rank (pJ)
system.physmem_1.totalEnergy              39174349935                       # Total energy per rank (pJ)
system.physmem_1.averagePower              671.632528                       # Core power per rank (mW)
system.physmem_1.memoryStateTime::IDLE    54671634140                       # Time in different power states
system.physmem_1.memoryStateTime::REF      1947660000                       # Time in different power states
system.physmem_1.memoryStateTime::PRE_PDN            0                       # Time in different power states
system.physmem_1.memoryStateTime::ACT      1708703360                       # Time in different power states
system.physmem_1.memoryStateTime::ACT_PDN            0                       # Time in different power states
system.pwrStateResidencyTicks::UNDEFINED  58328364500                       # Cumulative time (in ticks) in various power states
system.cpu.branchPred.lookups                28233990                       # Number of BP lookups
system.cpu.branchPred.condPredicted          23266525                       # Number of conditional branches predicted
system.cpu.branchPred.condIncorrect            835401                       # Number of conditional branches incorrect
system.cpu.branchPred.BTBLookups             11829630                       # Number of BTB lookups
system.cpu.branchPred.BTBHits                11747896                       # Number of BTB hits
system.cpu.branchPred.BTBCorrect                    0                       # Number of correct BTB predictions (this stat may not work properly.
system.cpu.branchPred.BTBHitPct             99.309074                       # BTB Hit Percentage
system.cpu.branchPred.usedRAS                   74550                       # Number of times the RAS was used to get a target.
system.cpu.branchPred.RASInCorrect                 96                       # Number of incorrect RAS predictions.
system.cpu.branchPred.indirectLookups           27225                       # Number of indirect predictor lookups.
system.cpu.branchPred.indirectHits              25478                       # Number of indirect target hits.
system.cpu.branchPred.indirectMisses             1747                       # Number of indirect misses.
system.cpu.branchPredindirectMispredicted          245                       # Number of mispredicted indirect branches.
system.cpu_clk_domain.clock                       500                       # Clock period in ticks
system.cpu.dstage2_mmu.stage2_tlb.walker.pwrStateResidencyTicks::UNDEFINED  58328364500                       # Cumulative time (in ticks) in various power states
system.cpu.dstage2_mmu.stage2_tlb.walker.walks            0                       # Table walker walks requested
system.cpu.dstage2_mmu.stage2_tlb.walker.walkRequestOrigin_Requested::Data            0                       # Table walker requests started/completed, data/inst
system.cpu.dstage2_mmu.stage2_tlb.walker.walkRequestOrigin_Requested::Inst            0                       # Table walker requests started/completed, data/inst
system.cpu.dstage2_mmu.stage2_tlb.walker.walkRequestOrigin_Requested::total            0                       # Table walker requests started/completed, data/inst
system.cpu.dstage2_mmu.stage2_tlb.walker.walkRequestOrigin_Completed::Data            0                       # Table walker requests started/completed, data/inst
system.cpu.dstage2_mmu.stage2_tlb.walker.walkRequestOrigin_Completed::Inst            0                       # Table walker requests started/completed, data/inst
system.cpu.dstage2_mmu.stage2_tlb.walker.walkRequestOrigin_Completed::total            0                       # Table walker requests started/completed, data/inst
system.cpu.dstage2_mmu.stage2_tlb.walker.walkRequestOrigin::total            0                       # Table walker requests started/completed, data/inst
system.cpu.dstage2_mmu.stage2_tlb.inst_hits            0                       # ITB inst hits
system.cpu.dstage2_mmu.stage2_tlb.inst_misses            0                       # ITB inst misses
system.cpu.dstage2_mmu.stage2_tlb.read_hits            0                       # DTB read hits
system.cpu.dstage2_mmu.stage2_tlb.read_misses            0                       # DTB read misses
system.cpu.dstage2_mmu.stage2_tlb.write_hits            0                       # DTB write hits
system.cpu.dstage2_mmu.stage2_tlb.write_misses            0                       # DTB write misses
system.cpu.dstage2_mmu.stage2_tlb.flush_tlb            0                       # Number of times complete TLB was flushed
system.cpu.dstage2_mmu.stage2_tlb.flush_tlb_mva            0                       # Number of times TLB was flushed by MVA
system.cpu.dstage2_mmu.stage2_tlb.flush_tlb_mva_asid            0                       # Number of times TLB was flushed by MVA & ASID
system.cpu.dstage2_mmu.stage2_tlb.flush_tlb_asid            0                       # Number of times TLB was flushed by ASID
system.cpu.dstage2_mmu.stage2_tlb.flush_entries            0                       # Number of entries that have been flushed from TLB
system.cpu.dstage2_mmu.stage2_tlb.align_faults            0                       # Number of TLB faults due to alignment restrictions
system.cpu.dstage2_mmu.stage2_tlb.prefetch_faults            0                       # Number of TLB faults due to prefetch
system.cpu.dstage2_mmu.stage2_tlb.domain_faults            0                       # Number of TLB faults due to domain restrictions
system.cpu.dstage2_mmu.stage2_tlb.perms_faults            0                       # Number of TLB faults due to permissions restrictions
system.cpu.dstage2_mmu.stage2_tlb.read_accesses            0                       # DTB read accesses
system.cpu.dstage2_mmu.stage2_tlb.write_accesses            0                       # DTB write accesses
system.cpu.dstage2_mmu.stage2_tlb.inst_accesses            0                       # ITB inst accesses
system.cpu.dstage2_mmu.stage2_tlb.hits              0                       # DTB hits
system.cpu.dstage2_mmu.stage2_tlb.misses            0                       # DTB misses
system.cpu.dstage2_mmu.stage2_tlb.accesses            0                       # DTB accesses
system.cpu.dtb.walker.pwrStateResidencyTicks::UNDEFINED  58328364500                       # Cumulative time (in ticks) in various power states
system.cpu.dtb.walker.walks                         0                       # Table walker walks requested
system.cpu.dtb.walker.walkRequestOrigin_Requested::Data            0                       # Table walker requests started/completed, data/inst
system.cpu.dtb.walker.walkRequestOrigin_Requested::Inst            0                       # Table walker requests started/completed, data/inst
system.cpu.dtb.walker.walkRequestOrigin_Requested::total            0                       # Table walker requests started/completed, data/inst
system.cpu.dtb.walker.walkRequestOrigin_Completed::Data            0                       # Table walker requests started/completed, data/inst
system.cpu.dtb.walker.walkRequestOrigin_Completed::Inst            0                       # Table walker requests started/completed, data/inst
system.cpu.dtb.walker.walkRequestOrigin_Completed::total            0                       # Table walker requests started/completed, data/inst
system.cpu.dtb.walker.walkRequestOrigin::total            0                       # Table walker requests started/completed, data/inst
system.cpu.dtb.inst_hits                            0                       # ITB inst hits
system.cpu.dtb.inst_misses                          0                       # ITB inst misses
system.cpu.dtb.read_hits                            0                       # DTB read hits
system.cpu.dtb.read_misses                          0                       # DTB read misses
system.cpu.dtb.write_hits                           0                       # DTB write hits
system.cpu.dtb.write_misses                         0                       # DTB write misses
system.cpu.dtb.flush_tlb                            0                       # Number of times complete TLB was flushed
system.cpu.dtb.flush_tlb_mva                        0                       # Number of times TLB was flushed by MVA
system.cpu.dtb.flush_tlb_mva_asid                   0                       # Number of times TLB was flushed by MVA & ASID
system.cpu.dtb.flush_tlb_asid                       0                       # Number of times TLB was flushed by ASID
system.cpu.dtb.flush_entries                        0                       # Number of entries that have been flushed from TLB
system.cpu.dtb.align_faults                         0                       # Number of TLB faults due to alignment restrictions
system.cpu.dtb.prefetch_faults                      0                       # Number of TLB faults due to prefetch
system.cpu.dtb.domain_faults                        0                       # Number of TLB faults due to domain restrictions
system.cpu.dtb.perms_faults                         0                       # Number of TLB faults due to permissions restrictions
system.cpu.dtb.read_accesses                        0                       # DTB read accesses
system.cpu.dtb.write_accesses                       0                       # DTB write accesses
system.cpu.dtb.inst_accesses                        0                       # ITB inst accesses
system.cpu.dtb.hits                                 0                       # DTB hits
system.cpu.dtb.misses                               0                       # DTB misses
system.cpu.dtb.accesses                             0                       # DTB accesses
system.cpu.istage2_mmu.stage2_tlb.walker.pwrStateResidencyTicks::UNDEFINED  58328364500                       # Cumulative time (in ticks) in various power states
system.cpu.istage2_mmu.stage2_tlb.walker.walks            0                       # Table walker walks requested
system.cpu.istage2_mmu.stage2_tlb.walker.walkRequestOrigin_Requested::Data            0                       # Table walker requests started/completed, data/inst
system.cpu.istage2_mmu.stage2_tlb.walker.walkRequestOrigin_Requested::Inst            0                       # Table walker requests started/completed, data/inst
system.cpu.istage2_mmu.stage2_tlb.walker.walkRequestOrigin_Requested::total            0                       # Table walker requests started/completed, data/inst
system.cpu.istage2_mmu.stage2_tlb.walker.walkRequestOrigin_Completed::Data            0                       # Table walker requests started/completed, data/inst
system.cpu.istage2_mmu.stage2_tlb.walker.walkRequestOrigin_Completed::Inst            0                       # Table walker requests started/completed, data/inst
system.cpu.istage2_mmu.stage2_tlb.walker.walkRequestOrigin_Completed::total            0                       # Table walker requests started/completed, data/inst
system.cpu.istage2_mmu.stage2_tlb.walker.walkRequestOrigin::total            0                       # Table walker requests started/completed, data/inst
system.cpu.istage2_mmu.stage2_tlb.inst_hits            0                       # ITB inst hits
system.cpu.istage2_mmu.stage2_tlb.inst_misses            0                       # ITB inst misses
system.cpu.istage2_mmu.stage2_tlb.read_hits            0                       # DTB read hits
system.cpu.istage2_mmu.stage2_tlb.read_misses            0                       # DTB read misses
system.cpu.istage2_mmu.stage2_tlb.write_hits            0                       # DTB write hits
system.cpu.istage2_mmu.stage2_tlb.write_misses            0                       # DTB write misses
system.cpu.istage2_mmu.stage2_tlb.flush_tlb            0                       # Number of times complete TLB was flushed
system.cpu.istage2_mmu.stage2_tlb.flush_tlb_mva            0                       # Number of times TLB was flushed by MVA
system.cpu.istage2_mmu.stage2_tlb.flush_tlb_mva_asid            0                       # Number of times TLB was flushed by MVA & ASID
system.cpu.istage2_mmu.stage2_tlb.flush_tlb_asid            0                       # Number of times TLB was flushed by ASID
system.cpu.istage2_mmu.stage2_tlb.flush_entries            0                       # Number of entries that have been flushed from TLB
system.cpu.istage2_mmu.stage2_tlb.align_faults            0                       # Number of TLB faults due to alignment restrictions
system.cpu.istage2_mmu.stage2_tlb.prefetch_faults            0                       # Number of TLB faults due to prefetch
system.cpu.istage2_mmu.stage2_tlb.domain_faults            0                       # Number of TLB faults due to domain restrictions
system.cpu.istage2_mmu.stage2_tlb.perms_faults            0                       # Number of TLB faults due to permissions restrictions
system.cpu.istage2_mmu.stage2_tlb.read_accesses            0                       # DTB read accesses
system.cpu.istage2_mmu.stage2_tlb.write_accesses            0                       # DTB write accesses
system.cpu.istage2_mmu.stage2_tlb.inst_accesses            0                       # ITB inst accesses
system.cpu.istage2_mmu.stage2_tlb.hits              0                       # DTB hits
system.cpu.istage2_mmu.stage2_tlb.misses            0                       # DTB misses
system.cpu.istage2_mmu.stage2_tlb.accesses            0                       # DTB accesses
system.cpu.itb.walker.pwrStateResidencyTicks::UNDEFINED  58328364500                       # Cumulative time (in ticks) in various power states
system.cpu.itb.walker.walks                         0                       # Table walker walks requested
system.cpu.itb.walker.walkRequestOrigin_Requested::Data            0                       # Table walker requests started/completed, data/inst
system.cpu.itb.walker.walkRequestOrigin_Requested::Inst            0                       # Table walker requests started/completed, data/inst
system.cpu.itb.walker.walkRequestOrigin_Requested::total            0                       # Table walker requests started/completed, data/inst
system.cpu.itb.walker.walkRequestOrigin_Completed::Data            0                       # Table walker requests started/completed, data/inst
system.cpu.itb.walker.walkRequestOrigin_Completed::Inst            0                       # Table walker requests started/completed, data/inst
system.cpu.itb.walker.walkRequestOrigin_Completed::total            0                       # Table walker requests started/completed, data/inst
system.cpu.itb.walker.walkRequestOrigin::total            0                       # Table walker requests started/completed, data/inst
system.cpu.itb.inst_hits                            0                       # ITB inst hits
system.cpu.itb.inst_misses                          0                       # ITB inst misses
system.cpu.itb.read_hits                            0                       # DTB read hits
system.cpu.itb.read_misses                          0                       # DTB read misses
system.cpu.itb.write_hits                           0                       # DTB write hits
system.cpu.itb.write_misses                         0                       # DTB write misses
system.cpu.itb.flush_tlb                            0                       # Number of times complete TLB was flushed
system.cpu.itb.flush_tlb_mva                        0                       # Number of times TLB was flushed by MVA
system.cpu.itb.flush_tlb_mva_asid                   0                       # Number of times TLB was flushed by MVA & ASID
system.cpu.itb.flush_tlb_asid                       0                       # Number of times TLB was flushed by ASID
system.cpu.itb.flush_entries                        0                       # Number of entries that have been flushed from TLB
system.cpu.itb.align_faults                         0                       # Number of TLB faults due to alignment restrictions
system.cpu.itb.prefetch_faults                      0                       # Number of TLB faults due to prefetch
system.cpu.itb.domain_faults                        0                       # Number of TLB faults due to domain restrictions
system.cpu.itb.perms_faults                         0                       # Number of TLB faults due to permissions restrictions
system.cpu.itb.read_accesses                        0                       # DTB read accesses
system.cpu.itb.write_accesses                       0                       # DTB write accesses
system.cpu.itb.inst_accesses                        0                       # ITB inst accesses
system.cpu.itb.hits                                 0                       # DTB hits
system.cpu.itb.misses                               0                       # DTB misses
system.cpu.itb.accesses                             0                       # DTB accesses
system.cpu.workload.num_syscalls                  442                       # Number of system calls
system.cpu.pwrStateResidencyTicks::ON     58328364500                       # Cumulative time (in ticks) in various power states
system.cpu.numCycles                        116656730                       # number of cpu cycles simulated
system.cpu.numWorkItemsStarted                      0                       # number of work items this cpu started
system.cpu.numWorkItemsCompleted                    0                       # number of work items this cpu completed
system.cpu.fetch.icacheStallCycles             746133                       # Number of cycles fetch is stalled on an Icache miss
system.cpu.fetch.Insts                      134907690                       # Number of instructions fetch has processed
system.cpu.fetch.Branches                    28233990                       # Number of branches that fetch encountered
system.cpu.fetch.predictedBranches           11847924                       # Number of branches that fetch has predicted taken
system.cpu.fetch.Cycles                     115018036                       # Number of cycles fetch has run and was not squashing or blocked
system.cpu.fetch.SquashCycles                 1674227                       # Number of cycles fetch has spent squashing
system.cpu.fetch.MiscStallCycles                  853                       # Number of cycles fetch has spent waiting on interrupts, or bad addresses, or out of MSHRs
system.cpu.fetch.IcacheWaitRetryStallCycles          829                       # Number of stall cycles due to full MSHR
system.cpu.fetch.CacheLines                  32275439                       # Number of cache lines fetched
system.cpu.fetch.IcacheSquashes                   555                       # Number of outstanding Icache misses that were squashed
system.cpu.fetch.rateDist::samples          116602964                       # Number of instructions fetched each cycle (Total)
system.cpu.fetch.rateDist::mean              1.162155                       # Number of instructions fetched each cycle (Total)
system.cpu.fetch.rateDist::stdev             1.318550                       # Number of instructions fetched each cycle (Total)
system.cpu.fetch.rateDist::underflows               0      0.00%      0.00% # Number of instructions fetched each cycle (Total)
system.cpu.fetch.rateDist::0                 59067374     50.66%     50.66% # Number of instructions fetched each cycle (Total)
system.cpu.fetch.rateDist::1                 13933709     11.95%     62.61% # Number of instructions fetched each cycle (Total)
system.cpu.fetch.rateDist::2                  9228635      7.91%     70.52% # Number of instructions fetched each cycle (Total)
system.cpu.fetch.rateDist::3                 34373246     29.48%    100.00% # Number of instructions fetched each cycle (Total)
system.cpu.fetch.rateDist::overflows                0      0.00%    100.00% # Number of instructions fetched each cycle (Total)
system.cpu.fetch.rateDist::min_value                0                       # Number of instructions fetched each cycle (Total)
system.cpu.fetch.rateDist::max_value                3                       # Number of instructions fetched each cycle (Total)
system.cpu.fetch.rateDist::total            116602964                       # Number of instructions fetched each cycle (Total)
system.cpu.fetch.branchRate                  0.242026                       # Number of branch fetches per cycle
system.cpu.fetch.rate                        1.156450                       # Number of inst fetches per cycle
system.cpu.decode.IdleCycles                  8835100                       # Number of cycles decode is idle
system.cpu.decode.BlockedCycles              64368120                       # Number of cycles decode is blocked
system.cpu.decode.RunCycles                  33012562                       # Number of cycles decode is running
system.cpu.decode.UnblockCycles               9561783                       # Number of cycles decode is unblocking
system.cpu.decode.SquashCycles                 825399                       # Number of cycles decode is squashing
system.cpu.decode.BranchResolved              4097891                       # Number of times decode resolved a branch
system.cpu.decode.BranchMispred                 11814                       # Number of times decode detected a branch misprediction
system.cpu.decode.DecodedInsts              114395515                       # Number of instructions handled by decode
system.cpu.decode.SquashedInsts               1985251                       # Number of squashed instructions handled by decode
system.cpu.rename.SquashCycles                 825399                       # Number of cycles rename is squashing
system.cpu.rename.IdleCycles                 15271601                       # Number of cycles rename is idle
system.cpu.rename.BlockCycles                50089085                       # Number of cycles rename is blocking
system.cpu.rename.serializeStallCycles         110009                       # count of cycles rename stalled for serializing inst
system.cpu.rename.RunCycles                  35409630                       # Number of cycles rename is running
system.cpu.rename.UnblockCycles              14897240                       # Number of cycles rename is unblocking
system.cpu.rename.RenamedInsts              110872720                       # Number of instructions processed by rename
system.cpu.rename.SquashedInsts               1412183                       # Number of squashed instructions processed by rename
system.cpu.rename.ROBFullEvents              11133547                       # Number of times rename has blocked due to ROB full
system.cpu.rename.IQFullEvents                1231881                       # Number of times rename has blocked due to IQ full
system.cpu.rename.LQFullEvents                1645196                       # Number of times rename has blocked due to LQ full
system.cpu.rename.SQFullEvents                 486344                       # Number of times rename has blocked due to SQ full
system.cpu.rename.RenamedOperands           129945840                       # Number of destination operands rename has renamed
system.cpu.rename.RenameLookups             483153679                       # Number of register rename lookups that rename has made
system.cpu.rename.int_rename_lookups        119447461                       # Number of integer rename lookups
system.cpu.rename.fp_rename_lookups               433                       # Number of floating rename lookups
system.cpu.rename.CommittedMaps             107312919                       # Number of HB maps that are committed
system.cpu.rename.UndoneMaps                 22632921                       # Number of HB maps that are undone due to squashing
system.cpu.rename.serializingInsts               4409                       # count of serializing insts renamed
system.cpu.rename.tempSerializingInsts           4401                       # count of temporary serializing insts renamed
system.cpu.rename.skidInsts                  21513680                       # count of insts added to the skid buffer
system.cpu.memDep0.insertedLoads             26805319                       # Number of loads inserted to the mem dependence unit.
system.cpu.memDep0.insertedStores             5347286                       # Number of stores inserted to the mem dependence unit.
system.cpu.memDep0.conflictingLoads            522469                       # Number of conflicting loads.
system.cpu.memDep0.conflictingStores           256366                       # Number of conflicting stores.
system.cpu.iq.iqInstsAdded                  109667529                       # Number of instructions added to the IQ (excludes non-spec)
system.cpu.iq.iqNonSpecInstsAdded                8283                       # Number of non-speculative instructions added to the IQ
system.cpu.iq.iqInstsIssued                 101366370                       # Number of instructions issued
system.cpu.iq.iqSquashedInstsIssued           1074686                       # Number of squashed instructions issued
system.cpu.iq.iqSquashedInstsExamined        18634782                       # Number of squashed instructions iterated over during squash; mainly for profiling
system.cpu.iq.iqSquashedOperandsExamined     41671490                       # Number of squashed operands that are examined and possibly removed from graph
system.cpu.iq.iqSquashedNonSpecRemoved             65                       # Number of squashed non-spec instructions that were removed
system.cpu.iq.issued_per_cycle::samples     116602964                       # Number of insts issued each cycle
system.cpu.iq.issued_per_cycle::mean         0.869329                       # Number of insts issued each cycle
system.cpu.iq.issued_per_cycle::stdev        0.988911                       # Number of insts issued each cycle
system.cpu.iq.issued_per_cycle::underflows            0      0.00%      0.00% # Number of insts issued each cycle
system.cpu.iq.issued_per_cycle::0            54969091     47.14%     47.14% # Number of insts issued each cycle
system.cpu.iq.issued_per_cycle::1            31363076     26.90%     74.04% # Number of insts issued each cycle
system.cpu.iq.issued_per_cycle::2            22007447     18.87%     92.91% # Number of insts issued each cycle
system.cpu.iq.issued_per_cycle::3             7065313      6.06%     98.97% # Number of insts issued each cycle
system.cpu.iq.issued_per_cycle::4             1197724      1.03%    100.00% # Number of insts issued each cycle
system.cpu.iq.issued_per_cycle::5                 313      0.00%    100.00% # Number of insts issued each cycle
system.cpu.iq.issued_per_cycle::6                   0      0.00%    100.00% # Number of insts issued each cycle
system.cpu.iq.issued_per_cycle::7                   0      0.00%    100.00% # Number of insts issued each cycle
system.cpu.iq.issued_per_cycle::8                   0      0.00%    100.00% # Number of insts issued each cycle
system.cpu.iq.issued_per_cycle::overflows            0      0.00%    100.00% # Number of insts issued each cycle
system.cpu.iq.issued_per_cycle::min_value            0                       # Number of insts issued each cycle
system.cpu.iq.issued_per_cycle::max_value            5                       # Number of insts issued each cycle
system.cpu.iq.issued_per_cycle::total       116602964                       # Number of insts issued each cycle
system.cpu.iq.fu_full::No_OpClass                   0      0.00%      0.00% # attempts to use FU when none available
system.cpu.iq.fu_full::IntAlu                 9783594     48.67%     48.67% # attempts to use FU when none available
system.cpu.iq.fu_full::IntMult                     50      0.00%     48.67% # attempts to use FU when none available
system.cpu.iq.fu_full::IntDiv                       0      0.00%     48.67% # attempts to use FU when none available
system.cpu.iq.fu_full::FloatAdd                     0      0.00%     48.67% # attempts to use FU when none available
system.cpu.iq.fu_full::FloatCmp                     0      0.00%     48.67% # attempts to use FU when none available
system.cpu.iq.fu_full::FloatCvt                     0      0.00%     48.67% # attempts to use FU when none available
system.cpu.iq.fu_full::FloatMult                    0      0.00%     48.67% # attempts to use FU when none available
system.cpu.iq.fu_full::FloatDiv                     0      0.00%     48.67% # attempts to use FU when none available
system.cpu.iq.fu_full::FloatSqrt                    0      0.00%     48.67% # attempts to use FU when none available
system.cpu.iq.fu_full::SimdAdd                      0      0.00%     48.67% # attempts to use FU when none available
system.cpu.iq.fu_full::SimdAddAcc                   0      0.00%     48.67% # attempts to use FU when none available
system.cpu.iq.fu_full::SimdAlu                      0      0.00%     48.67% # attempts to use FU when none available
system.cpu.iq.fu_full::SimdCmp                      0      0.00%     48.67% # attempts to use FU when none available
system.cpu.iq.fu_full::SimdCvt                      0      0.00%     48.67% # attempts to use FU when none available
system.cpu.iq.fu_full::SimdMisc                     0      0.00%     48.67% # attempts to use FU when none available
system.cpu.iq.fu_full::SimdMult                     0      0.00%     48.67% # attempts to use FU when none available
system.cpu.iq.fu_full::SimdMultAcc                  0      0.00%     48.67% # attempts to use FU when none available
system.cpu.iq.fu_full::SimdShift                    0      0.00%     48.67% # attempts to use FU when none available
system.cpu.iq.fu_full::SimdShiftAcc                 0      0.00%     48.67% # attempts to use FU when none available
system.cpu.iq.fu_full::SimdSqrt                     0      0.00%     48.67% # attempts to use FU when none available
system.cpu.iq.fu_full::SimdFloatAdd                 0      0.00%     48.67% # attempts to use FU when none available
system.cpu.iq.fu_full::SimdFloatAlu                 0      0.00%     48.67% # attempts to use FU when none available
system.cpu.iq.fu_full::SimdFloatCmp                 0      0.00%     48.67% # attempts to use FU when none available
system.cpu.iq.fu_full::SimdFloatCvt                13      0.00%     48.67% # attempts to use FU when none available
system.cpu.iq.fu_full::SimdFloatDiv                 0      0.00%     48.67% # attempts to use FU when none available
system.cpu.iq.fu_full::SimdFloatMisc                0      0.00%     48.67% # attempts to use FU when none available
system.cpu.iq.fu_full::SimdFloatMult                0      0.00%     48.67% # attempts to use FU when none available
system.cpu.iq.fu_full::SimdFloatMultAcc             0      0.00%     48.67% # attempts to use FU when none available
system.cpu.iq.fu_full::SimdFloatSqrt                0      0.00%     48.67% # attempts to use FU when none available
system.cpu.iq.fu_full::MemRead                9615674     47.83%     96.50% # attempts to use FU when none available
system.cpu.iq.fu_full::MemWrite                702930      3.50%    100.00% # attempts to use FU when none available
system.cpu.iq.fu_full::IprAccess                    0      0.00%    100.00% # attempts to use FU when none available
system.cpu.iq.fu_full::InstPrefetch                 0      0.00%    100.00% # attempts to use FU when none available
system.cpu.iq.FU_type_0::No_OpClass                 0      0.00%      0.00% # Type of FU issued
system.cpu.iq.FU_type_0::IntAlu              71970691     71.00%     71.00% # Type of FU issued
system.cpu.iq.FU_type_0::IntMult                10697      0.01%     71.01% # Type of FU issued
system.cpu.iq.FU_type_0::IntDiv                     0      0.00%     71.01% # Type of FU issued
system.cpu.iq.FU_type_0::FloatAdd                   0      0.00%     71.01% # Type of FU issued
system.cpu.iq.FU_type_0::FloatCmp                   0      0.00%     71.01% # Type of FU issued
system.cpu.iq.FU_type_0::FloatCvt                   0      0.00%     71.01% # Type of FU issued
system.cpu.iq.FU_type_0::FloatMult                  0      0.00%     71.01% # Type of FU issued
system.cpu.iq.FU_type_0::FloatDiv                   0      0.00%     71.01% # Type of FU issued
system.cpu.iq.FU_type_0::FloatSqrt                  0      0.00%     71.01% # Type of FU issued
system.cpu.iq.FU_type_0::SimdAdd                    0      0.00%     71.01% # Type of FU issued
system.cpu.iq.FU_type_0::SimdAddAcc                 0      0.00%     71.01% # Type of FU issued
system.cpu.iq.FU_type_0::SimdAlu                    0      0.00%     71.01% # Type of FU issued
system.cpu.iq.FU_type_0::SimdCmp                    0      0.00%     71.01% # Type of FU issued
system.cpu.iq.FU_type_0::SimdCvt                    0      0.00%     71.01% # Type of FU issued
system.cpu.iq.FU_type_0::SimdMisc                   0      0.00%     71.01% # Type of FU issued
system.cpu.iq.FU_type_0::SimdMult                   0      0.00%     71.01% # Type of FU issued
system.cpu.iq.FU_type_0::SimdMultAcc                0      0.00%     71.01% # Type of FU issued
system.cpu.iq.FU_type_0::SimdShift                  0      0.00%     71.01% # Type of FU issued
system.cpu.iq.FU_type_0::SimdShiftAcc               0      0.00%     71.01% # Type of FU issued
system.cpu.iq.FU_type_0::SimdSqrt                   0      0.00%     71.01% # Type of FU issued
system.cpu.iq.FU_type_0::SimdFloatAdd               0      0.00%     71.01% # Type of FU issued
system.cpu.iq.FU_type_0::SimdFloatAlu               0      0.00%     71.01% # Type of FU issued
system.cpu.iq.FU_type_0::SimdFloatCmp               2      0.00%     71.01% # Type of FU issued
system.cpu.iq.FU_type_0::SimdFloatCvt              54      0.00%     71.01% # Type of FU issued
system.cpu.iq.FU_type_0::SimdFloatDiv               0      0.00%     71.01% # Type of FU issued
system.cpu.iq.FU_type_0::SimdFloatMisc            125      0.00%     71.01% # Type of FU issued
system.cpu.iq.FU_type_0::SimdFloatMult              0      0.00%     71.01% # Type of FU issued
system.cpu.iq.FU_type_0::SimdFloatMultAcc            2      0.00%     71.01% # Type of FU issued
system.cpu.iq.FU_type_0::SimdFloatSqrt              0      0.00%     71.01% # Type of FU issued
system.cpu.iq.FU_type_0::MemRead             24337594     24.01%     95.02% # Type of FU issued
system.cpu.iq.FU_type_0::MemWrite             5047205      4.98%    100.00% # Type of FU issued
system.cpu.iq.FU_type_0::IprAccess                  0      0.00%    100.00% # Type of FU issued
system.cpu.iq.FU_type_0::InstPrefetch               0      0.00%    100.00% # Type of FU issued
system.cpu.iq.FU_type_0::total              101366370                       # Type of FU issued
system.cpu.iq.rate                           0.868929                       # Inst issue rate
system.cpu.iq.fu_busy_cnt                    20102261                       # FU busy when requested
system.cpu.iq.fu_busy_rate                   0.198313                       # FU busy rate (busy events/executed inst)
system.cpu.iq.int_inst_queue_reads          340512191                       # Number of integer instruction queue reads
system.cpu.iq.int_inst_queue_writes         128311283                       # Number of integer instruction queue writes
system.cpu.iq.int_inst_queue_wakeup_accesses     99607990                       # Number of integer instruction queue wakeup accesses
system.cpu.iq.fp_inst_queue_reads                 460                       # Number of floating instruction queue reads
system.cpu.iq.fp_inst_queue_writes                628                       # Number of floating instruction queue writes
system.cpu.iq.fp_inst_queue_wakeup_accesses          113                       # Number of floating instruction queue wakeup accesses
system.cpu.iq.int_alu_accesses              121468392                       # Number of integer alu accesses
system.cpu.iq.fp_alu_accesses                     239                       # Number of floating point alu accesses
system.cpu.iew.lsq.thread0.forwLoads           288047                       # Number of loads that had data forwarded from stores
system.cpu.iew.lsq.thread0.invAddrLoads             0                       # Number of loads ignored due to an invalid address
system.cpu.iew.lsq.thread0.squashedLoads      4329408                       # Number of loads squashed
system.cpu.iew.lsq.thread0.ignoredResponses         1498                       # Number of memory responses ignored because the instruction is squashed
system.cpu.iew.lsq.thread0.memOrderViolation         1351                       # Number of memory ordering violations
system.cpu.iew.lsq.thread0.squashedStores       602442                       # Number of stores squashed
system.cpu.iew.lsq.thread0.invAddrSwpfs             0                       # Number of software prefetches ignored due to an invalid address
system.cpu.iew.lsq.thread0.blockedLoads             0                       # Number of blocked loads due to partial load-store forwarding
system.cpu.iew.lsq.thread0.rescheduledLoads         7583                       # Number of loads that were rescheduled
system.cpu.iew.lsq.thread0.cacheBlocked        130712                       # Number of times an access to memory failed due to the cache being blocked
system.cpu.iew.iewIdleCycles                        0                       # Number of cycles IEW is idle
system.cpu.iew.iewSquashCycles                 825399                       # Number of cycles IEW is squashing
system.cpu.iew.iewBlockCycles                 8206553                       # Number of cycles IEW is blocking
system.cpu.iew.iewUnblockCycles                706266                       # Number of cycles IEW is unblocking
system.cpu.iew.iewDispatchedInsts           109688634                       # Number of instructions dispatched to IQ
system.cpu.iew.iewDispSquashedInsts                 0                       # Number of squashed instructions skipped by dispatch
system.cpu.iew.iewDispLoadInsts              26805319                       # Number of dispatched load instructions
system.cpu.iew.iewDispStoreInsts              5347286                       # Number of dispatched store instructions
system.cpu.iew.iewDispNonSpecInsts               4395                       # Number of dispatched non-speculative instructions
system.cpu.iew.iewIQFullEvents                 180569                       # Number of times the IQ has become full, causing a stall
system.cpu.iew.iewLSQFullEvents                362078                       # Number of times the LSQ has become full, causing a stall
system.cpu.iew.memOrderViolationEvents           1351                       # Number of memory order violations
system.cpu.iew.predictedTakenIncorrect         435086                       # Number of branches that were predicted taken incorrectly
system.cpu.iew.predictedNotTakenIncorrect       412401                       # Number of branches that were predicted not taken incorrectly
system.cpu.iew.branchMispredicts               847487                       # Number of branch mispredicts detected at execute
system.cpu.iew.iewExecutedInsts             100109489                       # Number of executed instructions
system.cpu.iew.iewExecLoadInsts              23802993                       # Number of load instructions executed
system.cpu.iew.iewExecSquashedInsts           1256881                       # Number of squashed instructions skipped in execute
system.cpu.iew.exec_swp                             0                       # number of swp insts executed
system.cpu.iew.exec_nop                         12822                       # number of nop insts executed
system.cpu.iew.exec_refs                     28718621                       # number of memory reference insts executed
system.cpu.iew.exec_branches                 20621294                       # Number of branches executed
system.cpu.iew.exec_stores                    4915628                       # Number of stores executed
system.cpu.iew.exec_rate                     0.858154                       # Inst execution rate
system.cpu.iew.wb_sent                       99693258                       # cumulative count of insts sent to commit
system.cpu.iew.wb_count                      99608103                       # cumulative count of insts written-back
system.cpu.iew.wb_producers                  59691284                       # num instructions producing a value
system.cpu.iew.wb_consumers                  95529167                       # num instructions consuming a value
system.cpu.iew.wb_rate                       0.853856                       # insts written-back per cycle
system.cpu.iew.wb_fanout                     0.624849                       # average fanout of values written-back
system.cpu.commit.commitSquashedInsts        17363279                       # The number of squashed insts skipped by commit
system.cpu.commit.commitNonSpecStalls            8218                       # The number of times commit has been forced to stall to communicate backwards
system.cpu.commit.branchMispredicts            823687                       # The number of times a branch was mispredicted
system.cpu.commit.committed_per_cycle::samples    113915056                       # Number of insts commited each cycle
system.cpu.commit.committed_per_cycle::mean     0.799312                       # Number of insts commited each cycle
system.cpu.commit.committed_per_cycle::stdev     1.736114                       # Number of insts commited each cycle
system.cpu.commit.committed_per_cycle::underflows            0      0.00%      0.00% # Number of insts commited each cycle
system.cpu.commit.committed_per_cycle::0     77490817     68.03%     68.03% # Number of insts commited each cycle
system.cpu.commit.committed_per_cycle::1     18611366     16.34%     84.36% # Number of insts commited each cycle
system.cpu.commit.committed_per_cycle::2      7154135      6.28%     90.64% # Number of insts commited each cycle
system.cpu.commit.committed_per_cycle::3      3469454      3.05%     93.69% # Number of insts commited each cycle
system.cpu.commit.committed_per_cycle::4      1644903      1.44%     95.13% # Number of insts commited each cycle
system.cpu.commit.committed_per_cycle::5       541342      0.48%     95.61% # Number of insts commited each cycle
system.cpu.commit.committed_per_cycle::6       703110      0.62%     96.23% # Number of insts commited each cycle
system.cpu.commit.committed_per_cycle::7       178773      0.16%     96.38% # Number of insts commited each cycle
system.cpu.commit.committed_per_cycle::8      4121156      3.62%    100.00% # Number of insts commited each cycle
system.cpu.commit.committed_per_cycle::overflows            0      0.00%    100.00% # Number of insts commited each cycle
system.cpu.commit.committed_per_cycle::min_value            0                       # Number of insts commited each cycle
system.cpu.commit.committed_per_cycle::max_value            8                       # Number of insts commited each cycle
system.cpu.commit.committed_per_cycle::total    113915056                       # Number of insts commited each cycle
system.cpu.commit.committedInsts             90602408                       # Number of instructions committed
system.cpu.commit.committedOps               91053639                       # Number of ops (including micro ops) committed
system.cpu.commit.swp_count                         0                       # Number of s/w prefetches committed
system.cpu.commit.refs                       27220755                       # Number of memory references committed
system.cpu.commit.loads                      22475911                       # Number of loads committed
system.cpu.commit.membars                        3888                       # Number of memory barriers committed
system.cpu.commit.branches                   18732305                       # Number of branches committed
system.cpu.commit.fp_insts                         48                       # Number of committed floating point instructions.
system.cpu.commit.int_insts                  72326352                       # Number of committed integer instructions.
system.cpu.commit.function_calls                56148                       # Number of function calls committed.
system.cpu.commit.op_class_0::No_OpClass            0      0.00%      0.00% # Class of committed instruction
system.cpu.commit.op_class_0::IntAlu         63822387     70.09%     70.09% # Class of committed instruction
system.cpu.commit.op_class_0::IntMult           10474      0.01%     70.10% # Class of committed instruction
system.cpu.commit.op_class_0::IntDiv                0      0.00%     70.10% # Class of committed instruction
system.cpu.commit.op_class_0::FloatAdd              0      0.00%     70.10% # Class of committed instruction
system.cpu.commit.op_class_0::FloatCmp              0      0.00%     70.10% # Class of committed instruction
system.cpu.commit.op_class_0::FloatCvt              0      0.00%     70.10% # Class of committed instruction
system.cpu.commit.op_class_0::FloatMult             0      0.00%     70.10% # Class of committed instruction
system.cpu.commit.op_class_0::FloatDiv              0      0.00%     70.10% # Class of committed instruction
system.cpu.commit.op_class_0::FloatSqrt             0      0.00%     70.10% # Class of committed instruction
system.cpu.commit.op_class_0::SimdAdd               0      0.00%     70.10% # Class of committed instruction
system.cpu.commit.op_class_0::SimdAddAcc            0      0.00%     70.10% # Class of committed instruction
system.cpu.commit.op_class_0::SimdAlu               0      0.00%     70.10% # Class of committed instruction
system.cpu.commit.op_class_0::SimdCmp               0      0.00%     70.10% # Class of committed instruction
system.cpu.commit.op_class_0::SimdCvt               0      0.00%     70.10% # Class of committed instruction
system.cpu.commit.op_class_0::SimdMisc              0      0.00%     70.10% # Class of committed instruction
system.cpu.commit.op_class_0::SimdMult              0      0.00%     70.10% # Class of committed instruction
system.cpu.commit.op_class_0::SimdMultAcc            0      0.00%     70.10% # Class of committed instruction
system.cpu.commit.op_class_0::SimdShift             0      0.00%     70.10% # Class of committed instruction
system.cpu.commit.op_class_0::SimdShiftAcc            0      0.00%     70.10% # Class of committed instruction
system.cpu.commit.op_class_0::SimdSqrt              0      0.00%     70.10% # Class of committed instruction
system.cpu.commit.op_class_0::SimdFloatAdd            0      0.00%     70.10% # Class of committed instruction
system.cpu.commit.op_class_0::SimdFloatAlu            0      0.00%     70.10% # Class of committed instruction
system.cpu.commit.op_class_0::SimdFloatCmp            0      0.00%     70.10% # Class of committed instruction
system.cpu.commit.op_class_0::SimdFloatCvt            6      0.00%     70.10% # Class of committed instruction
system.cpu.commit.op_class_0::SimdFloatDiv            0      0.00%     70.10% # Class of committed instruction
system.cpu.commit.op_class_0::SimdFloatMisc           15      0.00%     70.10% # Class of committed instruction
system.cpu.commit.op_class_0::SimdFloatMult            0      0.00%     70.10% # Class of committed instruction
[...]
system.cpu.l2cache.writebacks::total               89                       # number of writebacks
system.cpu.l2cache.ReadExReq_mshr_hits::cpu.data          158                       # number of ReadExReq MSHR hits
system.cpu.l2cache.ReadExReq_mshr_hits::total          158                       # number of ReadExReq MSHR hits
system.cpu.l2cache.ReadCleanReq_mshr_hits::cpu.inst            1                       # number of ReadCleanReq MSHR hits
system.cpu.l2cache.ReadCleanReq_mshr_hits::total            1                       # number of ReadCleanReq MSHR hits
system.cpu.l2cache.ReadSharedReq_mshr_hits::cpu.data           22                       # number of ReadSharedReq MSHR hits
system.cpu.l2cache.ReadSharedReq_mshr_hits::total           22                       # number of ReadSharedReq MSHR hits
system.cpu.l2cache.demand_mshr_hits::cpu.inst            1                       # number of demand (read+write) MSHR hits
system.cpu.l2cache.demand_mshr_hits::cpu.data          180                       # number of demand (read+write) MSHR hits
system.cpu.l2cache.demand_mshr_hits::total          181                       # number of demand (read+write) MSHR hits
system.cpu.l2cache.overall_mshr_hits::cpu.inst            1                       # number of overall MSHR hits
system.cpu.l2cache.overall_mshr_hits::cpu.data          180                       # number of overall MSHR hits
system.cpu.l2cache.overall_mshr_hits::total          181                       # number of overall MSHR hits
system.cpu.l2cache.HardPFReq_mshr_misses::cpu.l2cache.prefetcher       316573                       # number of HardPFReq MSHR misses
system.cpu.l2cache.HardPFReq_mshr_misses::total       316573                       # number of HardPFReq MSHR misses
system.cpu.l2cache.UpgradeReq_mshr_misses::cpu.data            3                       # number of UpgradeReq MSHR misses
system.cpu.l2cache.UpgradeReq_mshr_misses::total            3                       # number of UpgradeReq MSHR misses
system.cpu.l2cache.ReadExReq_mshr_misses::cpu.data          341                       # number of ReadExReq MSHR misses
system.cpu.l2cache.ReadExReq_mshr_misses::total          341                       # number of ReadExReq MSHR misses
system.cpu.l2cache.ReadCleanReq_mshr_misses::cpu.inst          700                       # number of ReadCleanReq MSHR misses
system.cpu.l2cache.ReadCleanReq_mshr_misses::total          700                       # number of ReadCleanReq MSHR misses
system.cpu.l2cache.ReadSharedReq_mshr_misses::cpu.data         3078                       # number of ReadSharedReq MSHR misses
system.cpu.l2cache.ReadSharedReq_mshr_misses::total         3078                       # number of ReadSharedReq MSHR misses
system.cpu.l2cache.demand_mshr_misses::cpu.inst          700                       # number of demand (read+write) MSHR misses
system.cpu.l2cache.demand_mshr_misses::cpu.data         3419                       # number of demand (read+write) MSHR misses
system.cpu.l2cache.demand_mshr_misses::total         4119                       # number of demand (read+write) MSHR misses
system.cpu.l2cache.overall_mshr_misses::cpu.inst          700                       # number of overall MSHR misses
system.cpu.l2cache.overall_mshr_misses::cpu.data         3419                       # number of overall MSHR misses
system.cpu.l2cache.overall_mshr_misses::cpu.l2cache.prefetcher       316573                       # number of overall MSHR misses
system.cpu.l2cache.overall_mshr_misses::total       320692                       # number of overall MSHR misses
system.cpu.l2cache.HardPFReq_mshr_miss_latency::cpu.l2cache.prefetcher    866631987                       # number of HardPFReq MSHR miss cycles
system.cpu.l2cache.HardPFReq_mshr_miss_latency::total    866631987                       # number of HardPFReq MSHR miss cycles
system.cpu.l2cache.UpgradeReq_mshr_miss_latency::cpu.data        46500                       # number of UpgradeReq MSHR miss cycles
system.cpu.l2cache.UpgradeReq_mshr_miss_latency::total        46500                       # number of UpgradeReq MSHR miss cycles
system.cpu.l2cache.ReadExReq_mshr_miss_latency::cpu.data     32627500                       # number of ReadExReq MSHR miss cycles
system.cpu.l2cache.ReadExReq_mshr_miss_latency::total     32627500                       # number of ReadExReq MSHR miss cycles
system.cpu.l2cache.ReadCleanReq_mshr_miss_latency::cpu.inst     44309000                       # number of ReadCleanReq MSHR miss cycles
system.cpu.l2cache.ReadCleanReq_mshr_miss_latency::total     44309000                       # number of ReadCleanReq MSHR miss cycles
system.cpu.l2cache.ReadSharedReq_mshr_miss_latency::cpu.data    208942500                       # number of ReadSharedReq MSHR miss cycles
system.cpu.l2cache.ReadSharedReq_mshr_miss_latency::total    208942500                       # number of ReadSharedReq MSHR miss cycles
system.cpu.l2cache.demand_mshr_miss_latency::cpu.inst     44309000                       # number of demand (read+write) MSHR miss cycles
system.cpu.l2cache.demand_mshr_miss_latency::cpu.data    241570000                       # number of demand (read+write) MSHR miss cycles
system.cpu.l2cache.demand_mshr_miss_latency::total    285879000                       # number of demand (read+write) MSHR miss cycles
system.cpu.l2cache.overall_mshr_miss_latency::cpu.inst     44309000                       # number of overall MSHR miss cycles
system.cpu.l2cache.overall_mshr_miss_latency::cpu.data    241570000                       # number of overall MSHR miss cycles
system.cpu.l2cache.overall_mshr_miss_latency::cpu.l2cache.prefetcher    866631987                       # number of overall MSHR miss cycles
system.cpu.l2cache.overall_mshr_miss_latency::total   1152510987                       # number of overall MSHR miss cycles
system.cpu.l2cache.HardPFReq_mshr_miss_rate::cpu.l2cache.prefetcher          inf                       # mshr miss rate for HardPFReq accesses
system.cpu.l2cache.HardPFReq_mshr_miss_rate::total          inf                       # mshr miss rate for HardPFReq accesses
system.cpu.l2cache.UpgradeReq_mshr_miss_rate::cpu.data            1                       # mshr miss rate for UpgradeReq accesses
system.cpu.l2cache.UpgradeReq_mshr_miss_rate::total            1                       # mshr miss rate for UpgradeReq accesses
system.cpu.l2cache.ReadExReq_mshr_miss_rate::cpu.data     0.001505                       # mshr miss rate for ReadExReq accesses
system.cpu.l2cache.ReadExReq_mshr_miss_rate::total     0.001505                       # mshr miss rate for ReadExReq accesses
system.cpu.l2cache.ReadCleanReq_mshr_miss_rate::cpu.inst     0.773481                       # mshr miss rate for ReadCleanReq accesses
system.cpu.l2cache.ReadCleanReq_mshr_miss_rate::total     0.773481                       # mshr miss rate for ReadCleanReq accesses
system.cpu.l2cache.ReadSharedReq_mshr_miss_rate::cpu.data     0.000587                       # mshr miss rate for ReadSharedReq accesses
system.cpu.l2cache.ReadSharedReq_mshr_miss_rate::total     0.000587                       # mshr miss rate for ReadSharedReq accesses
system.cpu.l2cache.demand_mshr_miss_rate::cpu.inst     0.773481                       # mshr miss rate for demand accesses
system.cpu.l2cache.demand_mshr_miss_rate::cpu.data     0.000625                       # mshr miss rate for demand accesses
system.cpu.l2cache.demand_mshr_miss_rate::total     0.000753                       # mshr miss rate for demand accesses
system.cpu.l2cache.overall_mshr_miss_rate::cpu.inst     0.773481                       # mshr miss rate for overall accesses
system.cpu.l2cache.overall_mshr_miss_rate::cpu.data     0.000625                       # mshr miss rate for overall accesses
system.cpu.l2cache.overall_mshr_miss_rate::cpu.l2cache.prefetcher          inf                       # mshr miss rate for overall accesses
system.cpu.l2cache.overall_mshr_miss_rate::total     0.058605                       # mshr miss rate for overall accesses
system.cpu.l2cache.HardPFReq_avg_mshr_miss_latency::cpu.l2cache.prefetcher  2737.542327                       # average HardPFReq mshr miss latency
system.cpu.l2cache.HardPFReq_avg_mshr_miss_latency::total  2737.542327                       # average HardPFReq mshr miss latency
system.cpu.l2cache.UpgradeReq_avg_mshr_miss_latency::cpu.data        15500                       # average UpgradeReq mshr miss latency
system.cpu.l2cache.UpgradeReq_avg_mshr_miss_latency::total        15500                       # average UpgradeReq mshr miss latency
system.cpu.l2cache.ReadExReq_avg_mshr_miss_latency::cpu.data 95681.818182                       # average ReadExReq mshr miss latency
system.cpu.l2cache.ReadExReq_avg_mshr_miss_latency::total 95681.818182                       # average ReadExReq mshr miss latency
system.cpu.l2cache.ReadCleanReq_avg_mshr_miss_latency::cpu.inst 63298.571429                       # average ReadCleanReq mshr miss latency
system.cpu.l2cache.ReadCleanReq_avg_mshr_miss_latency::total 63298.571429                       # average ReadCleanReq mshr miss latency
system.cpu.l2cache.ReadSharedReq_avg_mshr_miss_latency::cpu.data 67882.553606                       # average ReadSharedReq mshr miss latency
system.cpu.l2cache.ReadSharedReq_avg_mshr_miss_latency::total 67882.553606                       # average ReadSharedReq mshr miss latency
system.cpu.l2cache.demand_avg_mshr_miss_latency::cpu.inst 63298.571429                       # average overall mshr miss latency
system.cpu.l2cache.demand_avg_mshr_miss_latency::cpu.data 70655.162328                       # average overall mshr miss latency
system.cpu.l2cache.demand_avg_mshr_miss_latency::total 69404.952658                       # average overall mshr miss latency
system.cpu.l2cache.overall_avg_mshr_miss_latency::cpu.inst 63298.571429                       # average overall mshr miss latency
system.cpu.l2cache.overall_avg_mshr_miss_latency::cpu.data 70655.162328                       # average overall mshr miss latency
system.cpu.l2cache.overall_avg_mshr_miss_latency::cpu.l2cache.prefetcher  2737.542327                       # average overall mshr miss latency
system.cpu.l2cache.overall_avg_mshr_miss_latency::total  3593.825187                       # average overall mshr miss latency
system.cpu.toL2Bus.snoop_filter.tot_requests     10943139                       # Total number of requests made to the snoop filter.
system.cpu.toL2Bus.snoop_filter.hit_single_requests      5471099                       # Number of requests hitting in the snoop filter with a single holder of the requested data.
system.cpu.toL2Bus.snoop_filter.hit_multi_requests         2877                       # Number of requests hitting in the snoop filter with multiple (>1) holders of the requested data.
system.cpu.toL2Bus.snoop_filter.tot_snoops       302176                       # Total number of snoops made to the snoop filter.
system.cpu.toL2Bus.snoop_filter.hit_single_snoops       302175                       # Number of snoops hitting in the snoop filter with a single holder of the requested data.
system.cpu.toL2Bus.snoop_filter.hit_multi_snoops            1                       # Number of snoops hitting in the snoop filter with multiple (>1) holders of the requested data.
system.cpu.toL2Bus.pwrStateResidencyTicks::UNDEFINED  58328364500                       # Cumulative time (in ticks) in various power states
system.cpu.toL2Bus.trans_dist::ReadResp       5245531                       # Transaction distribution
system.cpu.toL2Bus.trans_dist::WritebackDirty      5457869                       # Transaction distribution
system.cpu.toL2Bus.trans_dist::WritebackClean        13303                       # Transaction distribution
system.cpu.toL2Bus.trans_dist::CleanEvict           34                       # Transaction distribution
system.cpu.toL2Bus.trans_dist::HardPFReq       318447                       # Transaction distribution
system.cpu.toL2Bus.trans_dist::HardPFResp            4                       # Transaction distribution
system.cpu.toL2Bus.trans_dist::UpgradeReq            3                       # Transaction distribution
system.cpu.toL2Bus.trans_dist::UpgradeResp            3                       # Transaction distribution
system.cpu.toL2Bus.trans_dist::ReadExReq       226521                       # Transaction distribution
system.cpu.toL2Bus.trans_dist::ReadExResp       226521                       # Transaction distribution
system.cpu.toL2Bus.trans_dist::ReadCleanReq          905                       # Transaction distribution
system.cpu.toL2Bus.trans_dist::ReadSharedReq      5244627                       # Transaction distribution
system.cpu.toL2Bus.pkt_count_system.cpu.icache.mem_side::system.cpu.l2cache.cpu_side         2256                       # Packet count per connected master and slave (bytes)
system.cpu.toL2Bus.pkt_count_system.cpu.dcache.mem_side::system.cpu.l2cache.cpu_side     16412942                       # Packet count per connected master and slave (bytes)
system.cpu.toL2Bus.pkt_count::total          16415198                       # Packet count per connected master and slave (bytes)
system.cpu.toL2Bus.pkt_size_system.cpu.icache.mem_side::system.cpu.l2cache.cpu_side        86464                       # Cumulative packet size per connected master and slave (bytes)
system.cpu.toL2Bus.pkt_size_system.cpu.dcache.mem_side::system.cpu.l2cache.cpu_side    700274432                       # Cumulative packet size per connected master and slave (bytes)
system.cpu.toL2Bus.pkt_size::total          700360896                       # Cumulative packet size per connected master and slave (bytes)
system.cpu.toL2Bus.snoops                      318574                       # Total snoops (count)
system.cpu.toL2Bus.snoopTraffic                  5952                       # Total snoop traffic (bytes)
system.cpu.toL2Bus.snoop_fanout::samples      5790626                       # Request fanout histogram
system.cpu.toL2Bus.snoop_fanout::mean        0.052683                       # Request fanout histogram
system.cpu.toL2Bus.snoop_fanout::stdev       0.223400                       # Request fanout histogram
system.cpu.toL2Bus.snoop_fanout::underflows            0      0.00%      0.00% # Request fanout histogram
system.cpu.toL2Bus.snoop_fanout::0            5485560     94.73%     94.73% # Request fanout histogram
system.cpu.toL2Bus.snoop_fanout::1             305065      5.27%    100.00% # Request fanout histogram
system.cpu.toL2Bus.snoop_fanout::2                  1      0.00%    100.00% # Request fanout histogram
system.cpu.toL2Bus.snoop_fanout::overflows            0      0.00%    100.00% # Request fanout histogram
system.cpu.toL2Bus.snoop_fanout::min_value            0                       # Request fanout histogram
system.cpu.toL2Bus.snoop_fanout::max_value            2                       # Request fanout histogram
system.cpu.toL2Bus.snoop_fanout::total        5790626                       # Request fanout histogram
system.cpu.toL2Bus.reqLayer0.occupancy    10942652515                       # Layer occupancy (ticks)
system.cpu.toL2Bus.reqLayer0.utilization         18.8                       # Layer utilization (%)
system.cpu.toL2Bus.snoopLayer0.occupancy         6019                       # Layer occupancy (ticks)
system.cpu.toL2Bus.snoopLayer0.utilization          0.0                       # Layer utilization (%)
system.cpu.toL2Bus.respLayer0.occupancy       1357497                       # Layer occupancy (ticks)
system.cpu.toL2Bus.respLayer0.utilization          0.0                       # Layer utilization (%)
system.cpu.toL2Bus.respLayer1.occupancy    8206727492                       # Layer occupancy (ticks)
system.cpu.toL2Bus.respLayer1.utilization         14.1                       # Layer utilization (%)
system.membus.snoop_filter.tot_requests         18642                       # Total number of requests made to the snoop filter.
system.membus.snoop_filter.hit_single_requests         3008                       # Number of requests hitting in the snoop filter with a single holder of the requested data.
system.membus.snoop_filter.hit_multi_requests            0                       # Number of requests hitting in the snoop filter with multiple (>1) holders of the requested data.
system.membus.snoop_filter.tot_snoops               0                       # Total number of snoops made to the snoop filter.
system.membus.snoop_filter.hit_single_snoops            0                       # Number of snoops hitting in the snoop filter with a single holder of the requested data.
system.membus.snoop_filter.hit_multi_snoops            0                       # Number of snoops hitting in the snoop filter with multiple (>1) holders of the requested data.
system.membus.pwrStateResidencyTicks::UNDEFINED  58328364500                       # Cumulative time (in ticks) in various power states
system.membus.trans_dist::ReadResp              18174                       # Transaction distribution
system.membus.trans_dist::WritebackDirty           89                       # Transaction distribution
system.membus.trans_dist::CleanEvict               34                       # Transaction distribution
system.membus.trans_dist::UpgradeReq                4                       # Transaction distribution
system.membus.trans_dist::ReadExReq               340                       # Transaction distribution
system.membus.trans_dist::ReadExResp              340                       # Transaction distribution
system.membus.trans_dist::ReadSharedReq         18175                       # Transaction distribution
system.membus.pkt_count_system.cpu.l2cache.mem_side::system.physmem.port        37156                       # Packet count per connected master and slave (bytes)
system.membus.pkt_count::total                  37156                       # Packet count per connected master and slave (bytes)
system.membus.pkt_size_system.cpu.l2cache.mem_side::system.physmem.port      1190592                       # Cumulative packet size per connected master and slave (bytes)
system.membus.pkt_size::total                 1190592                       # Cumulative packet size per connected master and slave (bytes)
system.membus.snoops                                0                       # Total snoops (count)
system.membus.snoopTraffic                          0                       # Total snoop traffic (bytes)
system.membus.snoop_fanout::samples             18519                       # Request fanout histogram
system.membus.snoop_fanout::mean                    0                       # Request fanout histogram
system.membus.snoop_fanout::stdev                   0                       # Request fanout histogram
system.membus.snoop_fanout::underflows              0      0.00%      0.00% # Request fanout histogram
system.membus.snoop_fanout::0                   18519    100.00%    100.00% # Request fanout histogram
system.membus.snoop_fanout::1                       0      0.00%    100.00% # Request fanout histogram
system.membus.snoop_fanout::overflows               0      0.00%    100.00% # Request fanout histogram
system.membus.snoop_fanout::min_value               0                       # Request fanout histogram
system.membus.snoop_fanout::max_value               0                       # Request fanout histogram
system.membus.snoop_fanout::total               18519                       # Request fanout histogram
system.membus.reqLayer0.occupancy            29524488                       # Layer occupancy (ticks)
system.membus.reqLayer0.utilization               0.1                       # Layer utilization (%)
system.membus.respLayer1.occupancy           97237655                       # Layer occupancy (ticks)
system.membus.respLayer1.utilization              0.2                       # Layer utilization (%)

---------- End Simulation Statistics   ----------
