Redirecting stdout to build/ARM_SE/tests/opt/long/30.eon/arm/linux/o3-timing/simout
Redirecting stderr to build/ARM_SE/tests/opt/long/30.eon/arm/linux/o3-timing/simerr
gem5 Simulator System.  http://gem5.org
gem5 is copyrighted software; use the --copyright option for details.

gem5 compiled Aug 20 2011 12:27:58
gem5 started Aug 20 2011 12:28:18
gem5 executing on zizzer
command line: build/ARM_SE/gem5.opt -d build/ARM_SE/tests/opt/long/30.eon/arm/linux/o3-timing -re tests/run.py build/ARM_SE/tests/opt/long/30.eon/arm/linux/o3-timing
Global frequency set at 1000000000000 ticks per second
info: Entering event queue @ 0.  Starting simulation...
info: Increasing stack size by one page.
Eon, Version 1.1
info: Increasing stack size by one page.
info: Increasing stack size by one page.
info: Increasing stack size by one page.
OO-style eon Time= 0.100000
Exiting @ tick 104473822000 because target called exit()
