gem5 Simulator System.  http://gem5.org
gem5 is copyrighted software; use the --copyright option for details.

gem5 compiled Dec  4 2015 10:28:58
gem5 started Dec  4 2015 10:53:21
gem5 executing on e104799-lin, pid 24287
command line: build/ALPHA/gem5.opt -d build/ALPHA/tests/opt/quick/fs/10.linux-boot/alpha/linux/tsunami-simple-timing-dual -re /work/gem5/outgoing/gem5_2/tests/run.py build/ALPHA/tests/opt/quick/fs/10.linux-boot/alpha/linux/tsunami-simple-timing-dual

Global frequency set at 1000000000000 ticks per second
info: kernel located at: /work/gem5/dist/binaries/vmlinux
      0: system.tsunami.io.rtc: Real-time clock set to Thu Jan  1 00:00:00 2009
info: Entering event queue @ 0.  Starting simulation...
info: Launching CPU 1 @ 881785000
Exiting @ tick 1982594146000 because m5_exit instruction encountered
