Redirecting stdout to build/SPARC/tests/opt/quick/se/50.vortex/sparc/linux/simple-atomic/simout
Redirecting stderr to build/SPARC/tests/opt/quick/se/50.vortex/sparc/linux/simple-atomic/simerr
gem5 Simulator System.  http://gem5.org
gem5 is copyrighted software; use the --copyright option for details.

gem5 compiled Mar 14 2016 17:46:51
gem5 started Mar 14 2016 17:54:20
gem5 executing on phenom, pid 26843
command line: build/SPARC/gem5.opt -d build/SPARC/tests/opt/quick/se/50.vortex/sparc/linux/simple-atomic -re /home/stever/hg/m5sim.org/gem5/tests/run.py build/SPARC/tests/opt/quick/se/50.vortex/sparc/linux/simple-atomic

Global frequency set at 1000000000000 ticks per second
info: Entering event queue @ 0.  Starting simulation...
info: Increasing stack size by one page.
Exiting @ tick 68148677000 because target called exit()
