gem5 Simulator System.  http://gem5.org
gem5 is copyrighted software; use the --copyright option for details.

gem5 compiled Jan 22 2014 17:04:27
gem5 started Jan 22 2014 19:46:20
gem5 executing on u200540-lin
command line: build/SPARC/gem5.opt -d build/SPARC/tests/opt/long/se/50.vortex/sparc/linux/simple-atomic -re tests/run.py build/SPARC/tests/opt/long/se/50.vortex/sparc/linux/simple-atomic
Global frequency set at 1000000000000 ticks per second
info: Entering event queue @ 0.  Starting simulation...
info: Increasing stack size by one page.
Exiting @ tick 68148672000 because target called exit()
