
---------- Begin Simulation Statistics ----------
sim_seconds                                  1.292219                       # Number of seconds simulated
sim_ticks                                1292219197500                       # Number of ticks simulated
final_tick                               3554552396500                       # Number of ticks from beginning of simulation (restored from checkpoints and never reset)
sim_freq                                 1000000000000                       # Frequency of simulated ticks
host_inst_rate                                 922657                       # Simulator instruction rate (inst/s)
host_op_rate                                   922657                       # Simulator op (including micro ops) rate (op/s)
host_tick_rate                              576624090                       # Simulator tick rate (ticks/s)
host_mem_usage                                 713988                       # Number of bytes of host memory used
host_seconds                                  2241.01                       # Real time elapsed on the host
sim_insts                                  2067681122                       # Number of instructions simulated
sim_ops                                    2067681122                       # Number of ops (including micro ops) simulated
system.voltage_domain.voltage                       1                       # Voltage in Volts
system.clk_domain.clock                          1000                       # Clock period in ticks
system.mem_ctrls.bytes_read::cpu0.inst       11516480                       # Number of bytes read from this memory
system.mem_ctrls.bytes_read::cpu0.data      268157504                       # Number of bytes read from this memory
system.mem_ctrls.bytes_read::cpu1.inst        5239744                       # Number of bytes read from this memory
system.mem_ctrls.bytes_read::cpu1.data      276099200                       # Number of bytes read from this memory
system.mem_ctrls.bytes_read::cpu2.inst        4830848                       # Number of bytes read from this memory
system.mem_ctrls.bytes_read::cpu2.data      243523584                       # Number of bytes read from this memory
system.mem_ctrls.bytes_read::cpu3.inst        5371392                       # Number of bytes read from this memory
system.mem_ctrls.bytes_read::cpu3.data      295407296                       # Number of bytes read from this memory
system.mem_ctrls.bytes_read::total         1110146048                       # Number of bytes read from this memory
system.mem_ctrls.bytes_inst_read::cpu0.inst     11516480                       # Number of instructions bytes read from this memory
system.mem_ctrls.bytes_inst_read::cpu1.inst      5239744                       # Number of instructions bytes read from this memory
system.mem_ctrls.bytes_inst_read::cpu2.inst      4830848                       # Number of instructions bytes read from this memory
system.mem_ctrls.bytes_inst_read::cpu3.inst      5371392                       # Number of instructions bytes read from this memory
system.mem_ctrls.bytes_inst_read::total      26958464                       # Number of instructions bytes read from this memory
system.mem_ctrls.bytes_written::writebacks     35703808                       # Number of bytes written to this memory
system.mem_ctrls.bytes_written::total        35703808                       # Number of bytes written to this memory
system.mem_ctrls.num_reads::cpu0.inst          179945                       # Number of read requests responded to by this memory
system.mem_ctrls.num_reads::cpu0.data         4189961                       # Number of read requests responded to by this memory
system.mem_ctrls.num_reads::cpu1.inst           81871                       # Number of read requests responded to by this memory
system.mem_ctrls.num_reads::cpu1.data         4314050                       # Number of read requests responded to by this memory
system.mem_ctrls.num_reads::cpu2.inst           75482                       # Number of read requests responded to by this memory
system.mem_ctrls.num_reads::cpu2.data         3805056                       # Number of read requests responded to by this memory
system.mem_ctrls.num_reads::cpu3.inst           83928                       # Number of read requests responded to by this memory
system.mem_ctrls.num_reads::cpu3.data         4615739                       # Number of read requests responded to by this memory
system.mem_ctrls.num_reads::total            17346032                       # Number of read requests responded to by this memory
system.mem_ctrls.num_writes::writebacks        557872                       # Number of write requests responded to by this memory
system.mem_ctrls.num_writes::total             557872                       # Number of write requests responded to by this memory
system.mem_ctrls.bw_read::cpu0.inst           8912172                       # Total read bandwidth from this memory (bytes/s)
system.mem_ctrls.bw_read::cpu0.data         207517041                       # Total read bandwidth from this memory (bytes/s)
system.mem_ctrls.bw_read::cpu1.inst           4054841                       # Total read bandwidth from this memory (bytes/s)
system.mem_ctrls.bw_read::cpu1.data         213662822                       # Total read bandwidth from this memory (bytes/s)
system.mem_ctrls.bw_read::cpu2.inst           3738412                       # Total read bandwidth from this memory (bytes/s)
system.mem_ctrls.bw_read::cpu2.data         188453774                       # Total read bandwidth from this memory (bytes/s)
system.mem_ctrls.bw_read::cpu3.inst           4156719                       # Total read bandwidth from this memory (bytes/s)
system.mem_ctrls.bw_read::cpu3.data         228604633                       # Total read bandwidth from this memory (bytes/s)
system.mem_ctrls.bw_read::total             859100414                       # Total read bandwidth from this memory (bytes/s)
system.mem_ctrls.bw_inst_read::cpu0.inst      8912172                       # Instruction read bandwidth from this memory (bytes/s)
system.mem_ctrls.bw_inst_read::cpu1.inst      4054841                       # Instruction read bandwidth from this memory (bytes/s)
system.mem_ctrls.bw_inst_read::cpu2.inst      3738412                       # Instruction read bandwidth from this memory (bytes/s)
system.mem_ctrls.bw_inst_read::cpu3.inst      4156719                       # Instruction read bandwidth from this memory (bytes/s)
system.mem_ctrls.bw_inst_read::total         20862145                       # Instruction read bandwidth from this memory (bytes/s)
system.mem_ctrls.bw_write::writebacks        27629839                       # Write bandwidth from this memory (bytes/s)
system.mem_ctrls.bw_write::total             27629839                       # Write bandwidth from this memory (bytes/s)
system.mem_ctrls.bw_total::writebacks        27629839                       # Total bandwidth to/from this memory (bytes/s)
system.mem_ctrls.bw_total::cpu0.inst          8912172                       # Total bandwidth to/from this memory (bytes/s)
system.mem_ctrls.bw_total::cpu0.data        207517041                       # Total bandwidth to/from this memory (bytes/s)
system.mem_ctrls.bw_total::cpu1.inst          4054841                       # Total bandwidth to/from this memory (bytes/s)
system.mem_ctrls.bw_total::cpu1.data        213662822                       # Total bandwidth to/from this memory (bytes/s)
system.mem_ctrls.bw_total::cpu2.inst          3738412                       # Total bandwidth to/from this memory (bytes/s)
system.mem_ctrls.bw_total::cpu2.data        188453774                       # Total bandwidth to/from this memory (bytes/s)
system.mem_ctrls.bw_total::cpu3.inst          4156719                       # Total bandwidth to/from this memory (bytes/s)
system.mem_ctrls.bw_total::cpu3.data        228604633                       # Total bandwidth to/from this memory (bytes/s)
system.mem_ctrls.bw_total::total            886730253                       # Total bandwidth to/from this memory (bytes/s)
system.mem_ctrls.readReqs                    17346032                       # Number of read requests accepted
system.mem_ctrls.writeReqs                     557872                       # Number of write requests accepted
system.mem_ctrls.readBursts                  17346032                       # Number of DRAM read bursts, including those serviced by the write queue
system.mem_ctrls.writeBursts                   557872                       # Number of DRAM write bursts, including those merged in the write queue
system.mem_ctrls.bytesReadDRAM             1107779200                       # Total number of bytes read from DRAM
system.mem_ctrls.bytesReadWrQ                 2366848                       # Total number of bytes read from write queue
system.mem_ctrls.bytesWritten                35664128                       # Total number of bytes written to DRAM
system.mem_ctrls.bytesReadSys              1110146048                       # Total read bytes from the system interface side
system.mem_ctrls.bytesWrittenSys             35703808                       # Total written bytes from the system interface side
system.mem_ctrls.servicedByWrQ                  36982                       # Number of DRAM read bursts serviced by the write queue
system.mem_ctrls.mergedWrBursts                   602                       # Number of DRAM write bursts merged with an existing one
system.mem_ctrls.neitherReadNorWriteReqs       380769                       # Number of requests that are neither read nor write
system.mem_ctrls.perBankRdBursts::0            802327                       # Per bank write bursts
system.mem_ctrls.perBankRdBursts::1           1073756                       # Per bank write bursts
system.mem_ctrls.perBankRdBursts::2           1072693                       # Per bank write bursts
system.mem_ctrls.perBankRdBursts::3           1142809                       # Per bank write bursts
system.mem_ctrls.perBankRdBursts::4           1038570                       # Per bank write bursts
system.mem_ctrls.perBankRdBursts::5           1053519                       # Per bank write bursts
system.mem_ctrls.perBankRdBursts::6           1027516                       # Per bank write bursts
system.mem_ctrls.perBankRdBursts::7           1083222                       # Per bank write bursts
system.mem_ctrls.perBankRdBursts::8           1151467                       # Per bank write bursts
system.mem_ctrls.perBankRdBursts::9           1055032                       # Per bank write bursts
system.mem_ctrls.perBankRdBursts::10          1101580                       # Per bank write bursts
system.mem_ctrls.perBankRdBursts::11          1121880                       # Per bank write bursts
system.mem_ctrls.perBankRdBursts::12          1063713                       # Per bank write bursts
system.mem_ctrls.perBankRdBursts::13          1171710                       # Per bank write bursts
system.mem_ctrls.perBankRdBursts::14          1101276                       # Per bank write bursts
system.mem_ctrls.perBankRdBursts::15          1247980                       # Per bank write bursts
system.mem_ctrls.perBankWrBursts::0             20132                       # Per bank write bursts
system.mem_ctrls.perBankWrBursts::1             29444                       # Per bank write bursts
system.mem_ctrls.perBankWrBursts::2             13049                       # Per bank write bursts
system.mem_ctrls.perBankWrBursts::3             75545                       # Per bank write bursts
system.mem_ctrls.perBankWrBursts::4             24452                       # Per bank write bursts
system.mem_ctrls.perBankWrBursts::5             42282                       # Per bank write bursts
system.mem_ctrls.perBankWrBursts::6             13688                       # Per bank write bursts
system.mem_ctrls.perBankWrBursts::7             19554                       # Per bank write bursts
system.mem_ctrls.perBankWrBursts::8             17658                       # Per bank write bursts
system.mem_ctrls.perBankWrBursts::9             23054                       # Per bank write bursts
system.mem_ctrls.perBankWrBursts::10            28436                       # Per bank write bursts
system.mem_ctrls.perBankWrBursts::11            57403                       # Per bank write bursts
system.mem_ctrls.perBankWrBursts::12            23619                       # Per bank write bursts
system.mem_ctrls.perBankWrBursts::13           125710                       # Per bank write bursts
system.mem_ctrls.perBankWrBursts::14            38462                       # Per bank write bursts
system.mem_ctrls.perBankWrBursts::15             4764                       # Per bank write bursts
system.mem_ctrls.numRdRetry                         0                       # Number of times read queue was full causing retry
system.mem_ctrls.numWrRetry                         4                       # Number of times write queue was full causing retry
system.mem_ctrls.totGap                  1292219126000                       # Total gap between requests
system.mem_ctrls.readPktSize::0                     0                       # Read request sizes (log2)
system.mem_ctrls.readPktSize::1                     0                       # Read request sizes (log2)
system.mem_ctrls.readPktSize::2                     0                       # Read request sizes (log2)
system.mem_ctrls.readPktSize::3                     0                       # Read request sizes (log2)
system.mem_ctrls.readPktSize::4                     0                       # Read request sizes (log2)
system.mem_ctrls.readPktSize::5                     0                       # Read request sizes (log2)
system.mem_ctrls.readPktSize::6              17346032                       # Read request sizes (log2)
system.mem_ctrls.writePktSize::0                    0                       # Write request sizes (log2)
system.mem_ctrls.writePktSize::1                    0                       # Write request sizes (log2)
system.mem_ctrls.writePktSize::2                    0                       # Write request sizes (log2)
system.mem_ctrls.writePktSize::3                    0                       # Write request sizes (log2)
system.mem_ctrls.writePktSize::4                    0                       # Write request sizes (log2)
system.mem_ctrls.writePktSize::5                    0                       # Write request sizes (log2)
system.mem_ctrls.writePktSize::6               557872                       # Write request sizes (log2)
system.mem_ctrls.rdQLenPdf::0                11160194                       # What read queue length does an incoming req see
system.mem_ctrls.rdQLenPdf::1                 4929209                       # What read queue length does an incoming req see
system.mem_ctrls.rdQLenPdf::2                 1048007                       # What read queue length does an incoming req see
system.mem_ctrls.rdQLenPdf::3                  171640                       # What read queue length does an incoming req see
system.mem_ctrls.rdQLenPdf::4                       0                       # What read queue length does an incoming req see
system.mem_ctrls.rdQLenPdf::5                       0                       # What read queue length does an incoming req see
system.mem_ctrls.rdQLenPdf::6                       0                       # What read queue length does an incoming req see
system.mem_ctrls.rdQLenPdf::7                       0                       # What read queue length does an incoming req see
system.mem_ctrls.rdQLenPdf::8                       0                       # What read queue length does an incoming req see
system.mem_ctrls.rdQLenPdf::9                       0                       # What read queue length does an incoming req see
system.mem_ctrls.rdQLenPdf::10                      0                       # What read queue length does an incoming req see
system.mem_ctrls.rdQLenPdf::11                      0                       # What read queue length does an incoming req see
system.mem_ctrls.rdQLenPdf::12                      0                       # What read queue length does an incoming req see
system.mem_ctrls.rdQLenPdf::13                      0                       # What read queue length does an incoming req see
system.mem_ctrls.rdQLenPdf::14                      0                       # What read queue length does an incoming req see
system.mem_ctrls.rdQLenPdf::15                      0                       # What read queue length does an incoming req see
system.mem_ctrls.rdQLenPdf::16                      0                       # What read queue length does an incoming req see
system.mem_ctrls.rdQLenPdf::17                      0                       # What read queue length does an incoming req see
system.mem_ctrls.rdQLenPdf::18                      0                       # What read queue length does an incoming req see
system.mem_ctrls.rdQLenPdf::19                      0                       # What read queue length does an incoming req see
system.mem_ctrls.rdQLenPdf::20                      0                       # What read queue length does an incoming req see
system.mem_ctrls.rdQLenPdf::21                      0                       # What read queue length does an incoming req see
system.mem_ctrls.rdQLenPdf::22                      0                       # What read queue length does an incoming req see
system.mem_ctrls.rdQLenPdf::23                      0                       # What read queue length does an incoming req see
system.mem_ctrls.rdQLenPdf::24                      0                       # What read queue length does an incoming req see
system.mem_ctrls.rdQLenPdf::25                      0                       # What read queue length does an incoming req see
system.mem_ctrls.rdQLenPdf::26                      0                       # What read queue length does an incoming req see
system.mem_ctrls.rdQLenPdf::27                      0                       # What read queue length does an incoming req see
system.mem_ctrls.rdQLenPdf::28                      0                       # What read queue length does an incoming req see
system.mem_ctrls.rdQLenPdf::29                      0                       # What read queue length does an incoming req see
system.mem_ctrls.rdQLenPdf::30                      0                       # What read queue length does an incoming req see
system.mem_ctrls.rdQLenPdf::31                      0                       # What read queue length does an incoming req see
system.mem_ctrls.wrQLenPdf::0                       1                       # What write queue length does an incoming req see
system.mem_ctrls.wrQLenPdf::1                       1                       # What write queue length does an incoming req see
system.mem_ctrls.wrQLenPdf::2                       1                       # What write queue length does an incoming req see
system.mem_ctrls.wrQLenPdf::3                       1                       # What write queue length does an incoming req see
system.mem_ctrls.wrQLenPdf::4                       1                       # What write queue length does an incoming req see
system.mem_ctrls.wrQLenPdf::5                       1                       # What write queue length does an incoming req see
system.mem_ctrls.wrQLenPdf::6                       1                       # What write queue length does an incoming req see
system.mem_ctrls.wrQLenPdf::7                       1                       # What write queue length does an incoming req see
system.mem_ctrls.wrQLenPdf::8                       1                       # What write queue length does an incoming req see
system.mem_ctrls.wrQLenPdf::9                       1                       # What write queue length does an incoming req see
system.mem_ctrls.wrQLenPdf::10                      1                       # What write queue length does an incoming req see
system.mem_ctrls.wrQLenPdf::11                      1                       # What write queue length does an incoming req see
system.mem_ctrls.wrQLenPdf::12                      1                       # What write queue length does an incoming req see
system.mem_ctrls.wrQLenPdf::13                      1                       # What write queue length does an incoming req see
system.mem_ctrls.wrQLenPdf::14                      1                       # What write queue length does an incoming req see
system.mem_ctrls.wrQLenPdf::15                   9857                       # What write queue length does an incoming req see
system.mem_ctrls.wrQLenPdf::16                  10858                       # What write queue length does an incoming req see
system.mem_ctrls.wrQLenPdf::17                  32470                       # What write queue length does an incoming req see
system.mem_ctrls.wrQLenPdf::18                  33504                       # What write queue length does an incoming req see
system.mem_ctrls.wrQLenPdf::19                  33517                       # What write queue length does an incoming req see
system.mem_ctrls.wrQLenPdf::20                  33516                       # What write queue length does an incoming req see
system.mem_ctrls.wrQLenPdf::21                  33513                       # What write queue length does an incoming req see
system.mem_ctrls.wrQLenPdf::22                  33518                       # What write queue length does an incoming req see
system.mem_ctrls.wrQLenPdf::23                  33562                       # What write queue length does an incoming req see
system.mem_ctrls.wrQLenPdf::24                  33578                       # What write queue length does an incoming req see
system.mem_ctrls.wrQLenPdf::25                  33604                       # What write queue length does an incoming req see
system.mem_ctrls.wrQLenPdf::26                  33682                       # What write queue length does an incoming req see
system.mem_ctrls.wrQLenPdf::27                  33642                       # What write queue length does an incoming req see
system.mem_ctrls.wrQLenPdf::28                  33682                       # What write queue length does an incoming req see
system.mem_ctrls.wrQLenPdf::29                  33682                       # What write queue length does an incoming req see
system.mem_ctrls.wrQLenPdf::30                  33560                       # What write queue length does an incoming req see
system.mem_ctrls.wrQLenPdf::31                  33555                       # What write queue length does an incoming req see
system.mem_ctrls.wrQLenPdf::32                  33521                       # What write queue length does an incoming req see
system.mem_ctrls.wrQLenPdf::33                     50                       # What write queue length does an incoming req see
system.mem_ctrls.wrQLenPdf::34                     41                       # What write queue length does an incoming req see
system.mem_ctrls.wrQLenPdf::35                     37                       # What write queue length does an incoming req see
system.mem_ctrls.wrQLenPdf::36                     33                       # What write queue length does an incoming req see
system.mem_ctrls.wrQLenPdf::37                     47                       # What write queue length does an incoming req see
system.mem_ctrls.wrQLenPdf::38                     15                       # What write queue length does an incoming req see
system.mem_ctrls.wrQLenPdf::39                     19                       # What write queue length does an incoming req see
system.mem_ctrls.wrQLenPdf::40                     17                       # What write queue length does an incoming req see
system.mem_ctrls.wrQLenPdf::41                      4                       # What write queue length does an incoming req see
system.mem_ctrls.wrQLenPdf::42                     10                       # What write queue length does an incoming req see
system.mem_ctrls.wrQLenPdf::43                      4                       # What write queue length does an incoming req see
system.mem_ctrls.wrQLenPdf::44                     10                       # What write queue length does an incoming req see
system.mem_ctrls.wrQLenPdf::45                     11                       # What write queue length does an incoming req see
system.mem_ctrls.wrQLenPdf::46                     15                       # What write queue length does an incoming req see
system.mem_ctrls.wrQLenPdf::47                      7                       # What write queue length does an incoming req see
system.mem_ctrls.wrQLenPdf::48                      6                       # What write queue length does an incoming req see
system.mem_ctrls.wrQLenPdf::49                      2                       # What write queue length does an incoming req see
system.mem_ctrls.wrQLenPdf::50                      9                       # What write queue length does an incoming req see
system.mem_ctrls.wrQLenPdf::51                     22                       # What write queue length does an incoming req see
system.mem_ctrls.wrQLenPdf::52                      9                       # What write queue length does an incoming req see
system.mem_ctrls.wrQLenPdf::53                      4                       # What write queue length does an incoming req see
system.mem_ctrls.wrQLenPdf::54                     12                       # What write queue length does an incoming req see
system.mem_ctrls.wrQLenPdf::55                      9                       # What write queue length does an incoming req see
system.mem_ctrls.wrQLenPdf::56                      3                       # What write queue length does an incoming req see
system.mem_ctrls.wrQLenPdf::57                      2                       # What write queue length does an incoming req see
system.mem_ctrls.wrQLenPdf::58                      4                       # What write queue length does an incoming req see
system.mem_ctrls.wrQLenPdf::59                      8                       # What write queue length does an incoming req see
system.mem_ctrls.wrQLenPdf::60                      2                       # What write queue length does an incoming req see
system.mem_ctrls.wrQLenPdf::61                      9                       # What write queue length does an incoming req see
system.mem_ctrls.wrQLenPdf::62                      4                       # What write queue length does an incoming req see
system.mem_ctrls.wrQLenPdf::63                      9                       # What write queue length does an incoming req see
system.mem_ctrls.bytesPerActivate::samples      8193645                       # Bytes accessed per row activation
system.mem_ctrls.bytesPerActivate::mean    139.552305                       # Bytes accessed per row activation
system.mem_ctrls.bytesPerActivate::gmean   117.609133                       # Bytes accessed per row activation
system.mem_ctrls.bytesPerActivate::stdev    92.829705                       # Bytes accessed per row activation
system.mem_ctrls.bytesPerActivate::0-127      3277269     40.00%     40.00% # Bytes accessed per row activation
system.mem_ctrls.bytesPerActivate::128-255      4085918     49.87%     89.86% # Bytes accessed per row activation
system.mem_ctrls.bytesPerActivate::256-383       551072      6.73%     96.59% # Bytes accessed per row activation
system.mem_ctrls.bytesPerActivate::384-511       207986      2.54%     99.13% # Bytes accessed per row activation
system.mem_ctrls.bytesPerActivate::512-639        43454      0.53%     99.66% # Bytes accessed per row activation
system.mem_ctrls.bytesPerActivate::640-767        12275      0.15%     99.81% # Bytes accessed per row activation
system.mem_ctrls.bytesPerActivate::768-895         5782      0.07%     99.88% # Bytes accessed per row activation
system.mem_ctrls.bytesPerActivate::896-1023         2738      0.03%     99.91% # Bytes accessed per row activation
system.mem_ctrls.bytesPerActivate::1024-1151         7151      0.09%    100.00% # Bytes accessed per row activation
system.mem_ctrls.bytesPerActivate::total      8193645                       # Bytes accessed per row activation
system.mem_ctrls.rdPerTurnAround::samples        33467                       # Reads before turning the bus around for writes
system.mem_ctrls.rdPerTurnAround::mean     517.197329                       # Reads before turning the bus around for writes
system.mem_ctrls.rdPerTurnAround::gmean    325.301991                       # Reads before turning the bus around for writes
system.mem_ctrls.rdPerTurnAround::stdev    601.600145                       # Reads before turning the bus around for writes
system.mem_ctrls.rdPerTurnAround::0-255         13104     39.15%     39.15% # Reads before turning the bus around for writes
system.mem_ctrls.rdPerTurnAround::256-511        11117     33.22%     72.37% # Reads before turning the bus around for writes
system.mem_ctrls.rdPerTurnAround::512-767         3840     11.47%     83.85% # Reads before turning the bus around for writes
system.mem_ctrls.rdPerTurnAround::768-1023         1424      4.25%     88.10% # Reads before turning the bus around for writes
system.mem_ctrls.rdPerTurnAround::1024-1279         1023      3.06%     91.16% # Reads before turning the bus around for writes
system.mem_ctrls.rdPerTurnAround::1280-1535          589      1.76%     92.92% # Reads before turning the bus around for writes
system.mem_ctrls.rdPerTurnAround::1536-1791          496      1.48%     94.40% # Reads before turning the bus around for writes
system.mem_ctrls.rdPerTurnAround::1792-2047          400      1.20%     95.60% # Reads before turning the bus around for writes
system.mem_ctrls.rdPerTurnAround::2048-2303          330      0.99%     96.58% # Reads before turning the bus around for writes
system.mem_ctrls.rdPerTurnAround::2304-2559          414      1.24%     97.82% # Reads before turning the bus around for writes
system.mem_ctrls.rdPerTurnAround::2560-2815          335      1.00%     98.82% # Reads before turning the bus around for writes
system.mem_ctrls.rdPerTurnAround::2816-3071          179      0.53%     99.35% # Reads before turning the bus around for writes
system.mem_ctrls.rdPerTurnAround::3072-3327           62      0.19%     99.54% # Reads before turning the bus around for writes
system.mem_ctrls.rdPerTurnAround::3328-3583           43      0.13%     99.67% # Reads before turning the bus around for writes
system.mem_ctrls.rdPerTurnAround::3584-3839           27      0.08%     99.75% # Reads before turning the bus around for writes
system.mem_ctrls.rdPerTurnAround::3840-4095           30      0.09%     99.84% # Reads before turning the bus around for writes
system.mem_ctrls.rdPerTurnAround::4096-4351            9      0.03%     99.87% # Reads before turning the bus around for writes
system.mem_ctrls.rdPerTurnAround::4352-4607            9      0.03%     99.89% # Reads before turning the bus around for writes
system.mem_ctrls.rdPerTurnAround::4608-4863            8      0.02%     99.92% # Reads before turning the bus around for writes
system.mem_ctrls.rdPerTurnAround::4864-5119           10      0.03%     99.95% # Reads before turning the bus around for writes
system.mem_ctrls.rdPerTurnAround::5120-5375           12      0.04%     99.98% # Reads before turning the bus around for writes
system.mem_ctrls.rdPerTurnAround::5376-5631            3      0.01%     99.99% # Reads before turning the bus around for writes
system.mem_ctrls.rdPerTurnAround::5632-5887            2      0.01%    100.00% # Reads before turning the bus around for writes
system.mem_ctrls.rdPerTurnAround::5888-6143            1      0.00%    100.00% # Reads before turning the bus around for writes
system.mem_ctrls.rdPerTurnAround::total         33467                       # Reads before turning the bus around for writes
system.mem_ctrls.wrPerTurnAround::samples        33467                       # Writes before turning the bus around for reads
system.mem_ctrls.wrPerTurnAround::mean      16.650790                       # Writes before turning the bus around for reads
system.mem_ctrls.wrPerTurnAround::gmean     16.622189                       # Writes before turning the bus around for reads
system.mem_ctrls.wrPerTurnAround::stdev      1.017650                       # Writes before turning the bus around for reads
system.mem_ctrls.wrPerTurnAround::16            22535     67.33%     67.33% # Writes before turning the bus around for reads
system.mem_ctrls.wrPerTurnAround::17              992      2.96%     70.30% # Writes before turning the bus around for reads
system.mem_ctrls.wrPerTurnAround::18             9296     27.78%     98.08% # Writes before turning the bus around for reads
system.mem_ctrls.wrPerTurnAround::19              578      1.73%     99.80% # Writes before turning the bus around for reads
system.mem_ctrls.wrPerTurnAround::20               38      0.11%     99.92% # Writes before turning the bus around for reads
system.mem_ctrls.wrPerTurnAround::21                5      0.01%     99.93% # Writes before turning the bus around for reads
system.mem_ctrls.wrPerTurnAround::22                3      0.01%     99.94% # Writes before turning the bus around for reads
system.mem_ctrls.wrPerTurnAround::23                6      0.02%     99.96% # Writes before turning the bus around for reads
system.mem_ctrls.wrPerTurnAround::24                2      0.01%     99.96% # Writes before turning the bus around for reads
system.mem_ctrls.wrPerTurnAround::25                2      0.01%     99.97% # Writes before turning the bus around for reads
system.mem_ctrls.wrPerTurnAround::27                1      0.00%     99.97% # Writes before turning the bus around for reads
system.mem_ctrls.wrPerTurnAround::28                1      0.00%     99.98% # Writes before turning the bus around for reads
system.mem_ctrls.wrPerTurnAround::29                1      0.00%     99.98% # Writes before turning the bus around for reads
system.mem_ctrls.wrPerTurnAround::32                2      0.01%     99.99% # Writes before turning the bus around for reads
system.mem_ctrls.wrPerTurnAround::37                1      0.00%     99.99% # Writes before turning the bus around for reads
system.mem_ctrls.wrPerTurnAround::38                1      0.00%     99.99% # Writes before turning the bus around for reads
system.mem_ctrls.wrPerTurnAround::39                1      0.00%     99.99% # Writes before turning the bus around for reads
system.mem_ctrls.wrPerTurnAround::43                1      0.00%    100.00% # Writes before turning the bus around for reads
system.mem_ctrls.wrPerTurnAround::46                1      0.00%    100.00% # Writes before turning the bus around for reads
system.mem_ctrls.wrPerTurnAround::total         33467                       # Writes before turning the bus around for reads
system.mem_ctrls.totQLat                 312972545750                       # Total ticks spent queuing
system.mem_ctrls.totMemAccLat            637517233250                       # Total ticks spent from burst creation until serviced by the DRAM
system.mem_ctrls.totBusLat                86545250000                       # Total ticks spent in databus transfers
system.mem_ctrls.avgQLat                     18081.44                       # Average queueing delay per DRAM burst
system.mem_ctrls.avgBusLat                    5000.00                       # Average bus latency per DRAM burst
system.mem_ctrls.avgMemAccLat                36831.44                       # Average memory access latency per DRAM burst
system.mem_ctrls.avgRdBW                       857.27                       # Average DRAM read bandwidth in MiByte/s
system.mem_ctrls.avgWrBW                        27.60                       # Average achieved write bandwidth in MiByte/s
system.mem_ctrls.avgRdBWSys                    859.10                       # Average system read bandwidth in MiByte/s
system.mem_ctrls.avgWrBWSys                     27.63                       # Average system write bandwidth in MiByte/s
system.mem_ctrls.peakBW                      12800.00                       # Theoretical peak bandwidth in MiByte/s
system.mem_ctrls.busUtil                         6.91                       # Data bus utilization in percentage
system.mem_ctrls.busUtilRead                     6.70                       # Data bus utilization in percentage for reads
system.mem_ctrls.busUtilWrite                    0.22                       # Data bus utilization in percentage for writes
system.mem_ctrls.avgRdQLen                       1.47                       # Average read queue length when enqueuing
system.mem_ctrls.avgWrQLen                      25.20                       # Average write queue length when enqueuing
system.mem_ctrls.readRowHits                  9351999                       # Number of row buffer hits during reads
system.mem_ctrls.writeRowHits                  320648                       # Number of row buffer hits during writes
system.mem_ctrls.readRowHitRate                 54.03                       # Row buffer hit rate for reads
system.mem_ctrls.writeRowHitRate                57.54                       # Row buffer hit rate for writes
system.mem_ctrls.avgGap                      72175.27                       # Average gap between requests
system.mem_ctrls.pageHitRate                    54.14                       # Row buffer hit rate, read and write combined
system.mem_ctrls_0.actEnergy              29376716040                       # Energy for activate commands per rank (pJ)
system.mem_ctrls_0.preEnergy              16028962125                       # Energy for precharge commands per rank (pJ)
system.mem_ctrls_0.readEnergy             64696265400                       # Energy for read commands per rank (pJ)
system.mem_ctrls_0.writeEnergy             1543127760                       # Energy for write commands per rank (pJ)
system.mem_ctrls_0.refreshEnergy          84401126160                       # Energy for refresh commands per rank (pJ)
system.mem_ctrls_0.actBackEnergy         782141837625                       # Energy for active background per rank (pJ)
system.mem_ctrls_0.preBackEnergy          89239126500                       # Energy for precharge background per rank (pJ)
system.mem_ctrls_0.totalEnergy           1067427161610                       # Total energy per rank (pJ)
system.mem_ctrls_0.averagePower            826.045130                       # Core power per rank (mW)
system.mem_ctrls_0.memoryStateTime::IDLE 144080944000                       # Time in different power states
system.mem_ctrls_0.memoryStateTime::REF   43149860000                       # Time in different power states
system.mem_ctrls_0.memoryStateTime::PRE_PDN            0                       # Time in different power states
system.mem_ctrls_0.memoryStateTime::ACT  1104983306000                       # Time in different power states
system.mem_ctrls_0.memoryStateTime::ACT_PDN            0                       # Time in different power states
system.mem_ctrls_1.actEnergy              32567149440                       # Energy for activate commands per rank (pJ)
system.mem_ctrls_1.preEnergy              17769774000                       # Energy for precharge commands per rank (pJ)
system.mem_ctrls_1.readEnergy             70314004800                       # Energy for read commands per rank (pJ)
system.mem_ctrls_1.writeEnergy             2067761520                       # Energy for write commands per rank (pJ)
system.mem_ctrls_1.refreshEnergy          84401126160                       # Energy for refresh commands per rank (pJ)
system.mem_ctrls_1.actBackEnergy         789711409980                       # Energy for active background per rank (pJ)
system.mem_ctrls_1.preBackEnergy          82599150750                       # Energy for precharge background per rank (pJ)
system.mem_ctrls_1.totalEnergy           1079430376650                       # Total energy per rank (pJ)
system.mem_ctrls_1.averagePower            835.334005                       # Core power per rank (mW)
system.mem_ctrls_1.memoryStateTime::IDLE 132982539500                       # Time in different power states
system.mem_ctrls_1.memoryStateTime::REF   43149860000                       # Time in different power states
system.mem_ctrls_1.memoryStateTime::PRE_PDN            0                       # Time in different power states
system.mem_ctrls_1.memoryStateTime::ACT  1116083149500                       # Time in different power states
system.mem_ctrls_1.memoryStateTime::ACT_PDN            0                       # Time in different power states
system.cpu_voltage_domain.voltage                   1                       # Voltage in Volts
system.cpu_clk_domain.clock                       500                       # Clock period in ticks
system.cpu0.dtb.fetch_hits                          0                       # ITB hits
system.cpu0.dtb.fetch_misses                        0                       # ITB misses
system.cpu0.dtb.fetch_acv                           0                       # ITB acv
system.cpu0.dtb.fetch_accesses                      0                       # ITB accesses
system.cpu0.dtb.read_hits                   123602184                       # DTB read hits
system.cpu0.dtb.read_misses                    311973                       # DTB read misses
system.cpu0.dtb.read_acv                            0                       # DTB read access violations
system.cpu0.dtb.read_accesses               108187689                       # DTB read accesses
system.cpu0.dtb.write_hits                   20473831                       # DTB write hits
system.cpu0.dtb.write_misses                     4793                       # DTB write misses
system.cpu0.dtb.write_acv                           0                       # DTB write access violations
system.cpu0.dtb.write_accesses               12275399                       # DTB write accesses
system.cpu0.dtb.data_hits                   144076015                       # DTB hits
system.cpu0.dtb.data_misses                    316766                       # DTB misses
system.cpu0.dtb.data_acv                            0                       # DTB access violations
system.cpu0.dtb.data_accesses               120463088                       # DTB accesses
system.cpu0.itb.fetch_hits                  440730338                       # ITB hits
system.cpu0.itb.fetch_misses                       31                       # ITB misses
system.cpu0.itb.fetch_acv                           0                       # ITB acv
system.cpu0.itb.fetch_accesses              440730369                       # ITB accesses
system.cpu0.itb.read_hits                           0                       # DTB read hits
system.cpu0.itb.read_misses                         0                       # DTB read misses
system.cpu0.itb.read_acv                            0                       # DTB read access violations
system.cpu0.itb.read_accesses                       0                       # DTB read accesses
system.cpu0.itb.write_hits                          0                       # DTB write hits
system.cpu0.itb.write_misses                        0                       # DTB write misses
system.cpu0.itb.write_acv                           0                       # DTB write access violations
system.cpu0.itb.write_accesses                      0                       # DTB write accesses
system.cpu0.itb.data_hits                           0                       # DTB hits
system.cpu0.itb.data_misses                         0                       # DTB misses
system.cpu0.itb.data_acv                            0                       # DTB access violations
system.cpu0.itb.data_accesses                       0                       # DTB accesses
system.cpu0.numCycles                      7107429181                       # number of cpu cycles simulated
system.cpu0.numWorkItemsStarted                     0                       # number of work items this cpu started
system.cpu0.numWorkItemsCompleted                   0                       # number of work items this cpu completed
system.cpu0.committedInsts                  504827974                       # Number of instructions committed
system.cpu0.committedOps                    504827974                       # Number of ops (including micro ops) committed
system.cpu0.num_int_alu_accesses            341431542                       # Number of integer alu accesses
system.cpu0.num_fp_alu_accesses             225610132                       # Number of float alu accesses
system.cpu0.num_func_calls                    2611495                       # number of times a function call or return occured
system.cpu0.num_conditional_control_insts     35465046                       # number of instructions that are conditional controls
system.cpu0.num_int_insts                   341431542                       # number of integer instructions
system.cpu0.num_fp_insts                    225610132                       # number of float instructions
system.cpu0.num_int_register_reads          735243379                       # number of times the integer registers were read
system.cpu0.num_int_register_writes         193192461                       # number of times the integer registers were written
system.cpu0.num_fp_register_reads           270313706                       # number of times the floating registers were read
system.cpu0.num_fp_register_writes          221916721                       # number of times the floating registers were written
system.cpu0.num_mem_refs                    144639833                       # number of memory refs
system.cpu0.num_load_insts                  124068272                       # Number of load instructions
system.cpu0.num_store_insts                  20571561                       # Number of store instructions
system.cpu0.num_idle_cycles              1185543728.380925                       # Number of idle cycles
system.cpu0.num_busy_cycles              5921885452.619075                       # Number of busy cycles
system.cpu0.not_idle_fraction                0.833197                       # Percentage of non-idle cycles
system.cpu0.idle_fraction                    0.166803                       # Percentage of idle cycles
system.cpu0.Branches                         41471328                       # Number of branches fetched
system.cpu0.op_class::No_OpClass             24432782      4.84%      4.84% # Class of executed instruction
system.cpu0.op_class::IntAlu                195973961     38.80%     43.63% # Class of executed instruction
system.cpu0.op_class::IntMult                  158643      0.03%     43.66% # Class of executed instruction
system.cpu0.op_class::IntDiv                        0      0.00%     43.66% # Class of executed instruction
system.cpu0.op_class::FloatAdd               90463941     17.91%     61.57% # Class of executed instruction
system.cpu0.op_class::FloatCmp                1331279      0.26%     61.84% # Class of executed instruction
system.cpu0.op_class::FloatCvt                   9013      0.00%     61.84% # Class of executed instruction
system.cpu0.op_class::FloatMult              43178396      8.55%     70.39% # Class of executed instruction
system.cpu0.op_class::FloatDiv                   6909      0.00%     70.39% # Class of executed instruction
system.cpu0.op_class::FloatSqrt                     0      0.00%     70.39% # Class of executed instruction
system.cpu0.op_class::SimdAdd                       0      0.00%     70.39% # Class of executed instruction
system.cpu0.op_class::SimdAddAcc                    0      0.00%     70.39% # Class of executed instruction
system.cpu0.op_class::SimdAlu                       0      0.00%     70.39% # Class of executed instruction
system.cpu0.op_class::SimdCmp                       0      0.00%     70.39% # Class of executed instruction
system.cpu0.op_class::SimdCvt                       0      0.00%     70.39% # Class of executed instruction
system.cpu0.op_class::SimdMisc                      0      0.00%     70.39% # Class of executed instruction
system.cpu0.op_class::SimdMult                      0      0.00%     70.39% # Class of executed instruction
system.cpu0.op_class::SimdMultAcc                   0      0.00%     70.39% # Class of executed instruction
system.cpu0.op_class::SimdShift                     0      0.00%     70.39% # Class of executed instruction
system.cpu0.op_class::SimdShiftAcc                  0      0.00%     70.39% # Class of executed instruction
system.cpu0.op_class::SimdSqrt                      0      0.00%     70.39% # Class of executed instruction
system.cpu0.op_class::SimdFloatAdd                  0      0.00%     70.39% # Class of executed instruction
system.cpu0.op_class::SimdFloatAlu                  0      0.00%     70.39% # Class of executed instruction
system.cpu0.op_class::SimdFloatCmp                  0      0.00%     70.39% # Class of executed instruction
system.cpu0.op_class::SimdFloatCvt                  0      0.00%     70.39% # Class of executed instruction
system.cpu0.op_class::SimdFloatDiv                  0      0.00%     70.39% # Class of executed instruction
system.cpu0.op_class::SimdFloatMisc                 0      0.00%     70.39% # Class of executed instruction
system.cpu0.op_class::SimdFloatMult                 0      0.00%     70.39% # Class of executed instruction
system.cpu0.op_class::SimdFloatMultAcc              0      0.00%     70.39% # Class of executed instruction
system.cpu0.op_class::SimdFloatSqrt                 0      0.00%     70.39% # Class of executed instruction
system.cpu0.op_class::MemRead               124440924     24.63%     95.02% # Class of executed instruction
system.cpu0.op_class::MemWrite               20609166      4.08%     99.10% # Class of executed instruction
system.cpu0.op_class::IprAccess               4539726      0.90%    100.00% # Class of executed instruction
system.cpu0.op_class::InstPrefetch                  0      0.00%    100.00% # Class of executed instruction
system.cpu0.op_class::total                 505144740                       # Class of executed instruction
system.cpu0.kern.inst.arm                           0                       # number of arm instructions executed
system.cpu0.kern.inst.quiesce                   11600                       # number of quiesce instructions executed
system.cpu0.kern.inst.hwrei                    576751                       # number of hwrei instructions executed
system.cpu0.kern.ipl_count::0                   82691     40.95%     40.95% # number of times we switched to this ipl
system.cpu0.kern.ipl_count::21                      1      0.00%     40.96% # number of times we switched to this ipl
system.cpu0.kern.ipl_count::22                   1328      0.66%     41.61% # number of times we switched to this ipl
system.cpu0.kern.ipl_count::30                  11452      5.67%     47.28% # number of times we switched to this ipl
system.cpu0.kern.ipl_count::31                 106437     52.72%    100.00% # number of times we switched to this ipl
system.cpu0.kern.ipl_count::total              201909                       # number of times we switched to this ipl
system.cpu0.kern.ipl_good::0                    82691     49.60%     49.60% # number of times we switched to this ipl from a different ipl
system.cpu0.kern.ipl_good::21                       1      0.00%     49.60% # number of times we switched to this ipl from a different ipl
system.cpu0.kern.ipl_good::22                    1328      0.80%     50.40% # number of times we switched to this ipl from a different ipl
system.cpu0.kern.ipl_good::30                   11452      6.87%     57.27% # number of times we switched to this ipl from a different ipl
system.cpu0.kern.ipl_good::31                   71243     42.73%    100.00% # number of times we switched to this ipl from a different ipl
system.cpu0.kern.ipl_good::total               166715                       # number of times we switched to this ipl from a different ipl
system.cpu0.kern.ipl_ticks::0            1177688779500     91.20%     91.20% # number of cycles we spent at this ipl
system.cpu0.kern.ipl_ticks::21                 741000      0.00%     91.20% # number of cycles we spent at this ipl
system.cpu0.kern.ipl_ticks::22             1424268500      0.11%     91.31% # number of cycles we spent at this ipl
system.cpu0.kern.ipl_ticks::30             8096100000      0.63%     91.93% # number of cycles we spent at this ipl
system.cpu0.kern.ipl_ticks::31           104171664000      8.07%    100.00% # number of cycles we spent at this ipl
system.cpu0.kern.ipl_ticks::total        1291381553000                       # number of cycles we spent at this ipl
system.cpu0.kern.ipl_used::0                        1                       # fraction of swpipl calls that actually changed the ipl
system.cpu0.kern.ipl_used::21                       1                       # fraction of swpipl calls that actually changed the ipl
system.cpu0.kern.ipl_used::22                       1                       # fraction of swpipl calls that actually changed the ipl
system.cpu0.kern.ipl_used::30                       1                       # fraction of swpipl calls that actually changed the ipl
system.cpu0.kern.ipl_used::31                0.669344                       # fraction of swpipl calls that actually changed the ipl
system.cpu0.kern.ipl_used::total             0.825694                       # fraction of swpipl calls that actually changed the ipl
system.cpu0.kern.syscall::1                         2    100.00%    100.00% # number of syscalls executed
system.cpu0.kern.syscall::total                     2                       # number of syscalls executed
system.cpu0.kern.callpal::wripir                11441      4.63%      4.63% # number of callpals executed
system.cpu0.kern.callpal::swpctx                22907      9.27%     13.90% # number of callpals executed
system.cpu0.kern.callpal::swpipl               156806     63.44%     77.33% # number of callpals executed
system.cpu0.kern.callpal::rdps                   2874      1.16%     78.50% # number of callpals executed
system.cpu0.kern.callpal::rti                   32327     13.08%     91.58% # number of callpals executed
system.cpu0.kern.callpal::callsys               19543      7.91%     99.48% # number of callpals executed
system.cpu0.kern.callpal::rdunique               1280      0.52%    100.00% # number of callpals executed
system.cpu0.kern.callpal::total                247178                       # number of callpals executed
system.cpu0.kern.mode_switch::kernel            55232                       # number of protection mode switches
system.cpu0.kern.mode_switch::user              20527                       # number of protection mode switches
system.cpu0.kern.mode_switch::idle                  0                       # number of protection mode switches
system.cpu0.kern.mode_good::kernel              20527                      
system.cpu0.kern.mode_good::user                20527                      
system.cpu0.kern.mode_good::idle                    0                      
system.cpu0.kern.mode_switch_good::kernel     0.371650                       # fraction of useful protection mode switches
system.cpu0.kern.mode_switch_good::user             1                       # fraction of useful protection mode switches
system.cpu0.kern.mode_switch_good::idle           nan                       # fraction of useful protection mode switches
system.cpu0.kern.mode_switch_good::total     0.541903                       # fraction of useful protection mode switches
system.cpu0.kern.mode_ticks::kernel      358952059500     27.81%     27.81% # number of ticks spent at the given mode
system.cpu0.kern.mode_ticks::user        931895477500     72.19%    100.00% # number of ticks spent at the given mode
system.cpu0.kern.mode_ticks::idle                   0      0.00%    100.00% # number of ticks spent at the given mode
system.cpu0.kern.swap_context                   22907                       # number of times the context was actually changed
system.cpu0.dcache.tags.replacements          5431801                       # number of replacements
system.cpu0.dcache.tags.tagsinuse          492.442125                       # Cycle average of tags in use
system.cpu0.dcache.tags.total_refs          137517952                       # Total number of references to valid blocks.
system.cpu0.dcache.tags.sampled_refs          5431801                       # Sample count of references to valid blocks.
system.cpu0.dcache.tags.avg_refs            25.317193                       # Average number of references to valid blocks.
system.cpu0.dcache.tags.warmup_cycle     2328923653500                       # Cycle when the warmup percentage was hit.
system.cpu0.dcache.tags.occ_blocks::cpu0.data   492.442125                       # Average occupied blocks per requestor
system.cpu0.dcache.tags.occ_percent::cpu0.data     0.961801                       # Average percentage of cache occupancy
system.cpu0.dcache.tags.occ_percent::total     0.961801                       # Average percentage of cache occupancy
system.cpu0.dcache.tags.occ_task_id_blocks::1024          437                       # Occupied blocks per task id
system.cpu0.dcache.tags.age_task_id_blocks_1024::2            2                       # Occupied blocks per task id
system.cpu0.dcache.tags.age_task_id_blocks_1024::3          434                       # Occupied blocks per task id
system.cpu0.dcache.tags.age_task_id_blocks_1024::4            1                       # Occupied blocks per task id
system.cpu0.dcache.tags.occ_task_id_percent::1024     0.853516                       # Percentage of cache occupancy per task id
system.cpu0.dcache.tags.tag_accesses        294852642                       # Number of tag accesses
system.cpu0.dcache.tags.data_accesses       294852642                       # Number of data accesses
system.cpu0.dcache.ReadReq_hits::cpu0.data    117496326                       # number of ReadReq hits
system.cpu0.dcache.ReadReq_hits::total      117496326                       # number of ReadReq hits
system.cpu0.dcache.WriteReq_hits::cpu0.data     19416425                       # number of WriteReq hits
system.cpu0.dcache.WriteReq_hits::total      19416425                       # number of WriteReq hits
system.cpu0.dcache.LoadLockedReq_hits::cpu0.data       128316                       # number of LoadLockedReq hits
system.cpu0.dcache.LoadLockedReq_hits::total       128316                       # number of LoadLockedReq hits
system.cpu0.dcache.StoreCondReq_hits::cpu0.data        82246                       # number of StoreCondReq hits
system.cpu0.dcache.StoreCondReq_hits::total        82246                       # number of StoreCondReq hits
system.cpu0.dcache.demand_hits::cpu0.data    136912751                       # number of demand (read+write) hits
system.cpu0.dcache.demand_hits::total       136912751                       # number of demand (read+write) hits
system.cpu0.dcache.overall_hits::cpu0.data    136912751                       # number of overall hits
system.cpu0.dcache.overall_hits::total      136912751                       # number of overall hits
system.cpu0.dcache.ReadReq_misses::cpu0.data      6034776                       # number of ReadReq misses
system.cpu0.dcache.ReadReq_misses::total      6034776                       # number of ReadReq misses
system.cpu0.dcache.WriteReq_misses::cpu0.data       876681                       # number of WriteReq misses
system.cpu0.dcache.WriteReq_misses::total       876681                       # number of WriteReq misses
system.cpu0.dcache.LoadLockedReq_misses::cpu0.data        96622                       # number of LoadLockedReq misses
system.cpu0.dcache.LoadLockedReq_misses::total        96622                       # number of LoadLockedReq misses
system.cpu0.dcache.StoreCondReq_misses::cpu0.data       134328                       # number of StoreCondReq misses
system.cpu0.dcache.StoreCondReq_misses::total       134328                       # number of StoreCondReq misses
system.cpu0.dcache.demand_misses::cpu0.data      6911457                       # number of demand (read+write) misses
system.cpu0.dcache.demand_misses::total       6911457                       # number of demand (read+write) misses
system.cpu0.dcache.overall_misses::cpu0.data      6911457                       # number of overall misses
system.cpu0.dcache.overall_misses::total      6911457                       # number of overall misses
system.cpu0.dcache.ReadReq_miss_latency::cpu0.data 388225391000                       # number of ReadReq miss cycles
system.cpu0.dcache.ReadReq_miss_latency::total 388225391000                       # number of ReadReq miss cycles
system.cpu0.dcache.WriteReq_miss_latency::cpu0.data  11837660000                       # number of WriteReq miss cycles
system.cpu0.dcache.WriteReq_miss_latency::total  11837660000                       # number of WriteReq miss cycles
system.cpu0.dcache.LoadLockedReq_miss_latency::cpu0.data   1073055000                       # number of LoadLockedReq miss cycles
system.cpu0.dcache.LoadLockedReq_miss_latency::total   1073055000                       # number of LoadLockedReq miss cycles
system.cpu0.dcache.StoreCondReq_miss_latency::cpu0.data    784930500                       # number of StoreCondReq miss cycles
system.cpu0.dcache.StoreCondReq_miss_latency::total    784930500                       # number of StoreCondReq miss cycles
system.cpu0.dcache.StoreCondFailReq_miss_latency::cpu0.data      3000500                       # number of StoreCondFailReq miss cycles
system.cpu0.dcache.StoreCondFailReq_miss_latency::total      3000500                       # number of StoreCondFailReq miss cycles
system.cpu0.dcache.demand_miss_latency::cpu0.data 400063051000                       # number of demand (read+write) miss cycles
system.cpu0.dcache.demand_miss_latency::total 400063051000                       # number of demand (read+write) miss cycles
system.cpu0.dcache.overall_miss_latency::cpu0.data 400063051000                       # number of overall miss cycles
system.cpu0.dcache.overall_miss_latency::total 400063051000                       # number of overall miss cycles
system.cpu0.dcache.ReadReq_accesses::cpu0.data    123531102                       # number of ReadReq accesses(hits+misses)
system.cpu0.dcache.ReadReq_accesses::total    123531102                       # number of ReadReq accesses(hits+misses)
system.cpu0.dcache.WriteReq_accesses::cpu0.data     20293106                       # number of WriteReq accesses(hits+misses)
system.cpu0.dcache.WriteReq_accesses::total     20293106                       # number of WriteReq accesses(hits+misses)
system.cpu0.dcache.LoadLockedReq_accesses::cpu0.data       224938                       # number of LoadLockedReq accesses(hits+misses)
system.cpu0.dcache.LoadLockedReq_accesses::total       224938                       # number of LoadLockedReq accesses(hits+misses)
system.cpu0.dcache.StoreCondReq_accesses::cpu0.data       216574                       # number of StoreCondReq accesses(hits+misses)
system.cpu0.dcache.StoreCondReq_accesses::total       216574                       # number of StoreCondReq accesses(hits+misses)
system.cpu0.dcache.demand_accesses::cpu0.data    143824208                       # number of demand (read+write) accesses
system.cpu0.dcache.demand_accesses::total    143824208                       # number of demand (read+write) accesses
system.cpu0.dcache.overall_accesses::cpu0.data    143824208                       # number of overall (read+write) accesses
system.cpu0.dcache.overall_accesses::total    143824208                       # number of overall (read+write) accesses
system.cpu0.dcache.ReadReq_miss_rate::cpu0.data     0.048852                       # miss rate for ReadReq accesses
system.cpu0.dcache.ReadReq_miss_rate::total     0.048852                       # miss rate for ReadReq accesses
system.cpu0.dcache.WriteReq_miss_rate::cpu0.data     0.043201                       # miss rate for WriteReq accesses
system.cpu0.dcache.WriteReq_miss_rate::total     0.043201                       # miss rate for WriteReq accesses
system.cpu0.dcache.LoadLockedReq_miss_rate::cpu0.data     0.429549                       # miss rate for LoadLockedReq accesses
system.cpu0.dcache.LoadLockedReq_miss_rate::total     0.429549                       # miss rate for LoadLockedReq accesses
system.cpu0.dcache.StoreCondReq_miss_rate::cpu0.data     0.620241                       # miss rate for StoreCondReq accesses
system.cpu0.dcache.StoreCondReq_miss_rate::total     0.620241                       # miss rate for StoreCondReq accesses
system.cpu0.dcache.demand_miss_rate::cpu0.data     0.048055                       # miss rate for demand accesses
system.cpu0.dcache.demand_miss_rate::total     0.048055                       # miss rate for demand accesses
system.cpu0.dcache.overall_miss_rate::cpu0.data     0.048055                       # miss rate for overall accesses
system.cpu0.dcache.overall_miss_rate::total     0.048055                       # miss rate for overall accesses
system.cpu0.dcache.ReadReq_avg_miss_latency::cpu0.data 64331.367229                       # average ReadReq miss latency
system.cpu0.dcache.ReadReq_avg_miss_latency::total 64331.367229                       # average ReadReq miss latency
system.cpu0.dcache.WriteReq_avg_miss_latency::cpu0.data 13502.813452                       # average WriteReq miss latency
system.cpu0.dcache.WriteReq_avg_miss_latency::total 13502.813452                       # average WriteReq miss latency
system.cpu0.dcache.LoadLockedReq_avg_miss_latency::cpu0.data 11105.700565                       # average LoadLockedReq miss latency
system.cpu0.dcache.LoadLockedReq_avg_miss_latency::total 11105.700565                       # average LoadLockedReq miss latency
system.cpu0.dcache.StoreCondReq_avg_miss_latency::cpu0.data  5843.387082                       # average StoreCondReq miss latency
system.cpu0.dcache.StoreCondReq_avg_miss_latency::total  5843.387082                       # average StoreCondReq miss latency
system.cpu0.dcache.StoreCondFailReq_avg_miss_latency::cpu0.data          inf                       # average StoreCondFailReq miss latency
system.cpu0.dcache.StoreCondFailReq_avg_miss_latency::total          inf                       # average StoreCondFailReq miss latency
system.cpu0.dcache.demand_avg_miss_latency::cpu0.data 57884.039646                       # average overall miss latency
system.cpu0.dcache.demand_avg_miss_latency::total 57884.039646                       # average overall miss latency
system.cpu0.dcache.overall_avg_miss_latency::cpu0.data 57884.039646                       # average overall miss latency
system.cpu0.dcache.overall_avg_miss_latency::total 57884.039646                       # average overall miss latency
system.cpu0.dcache.blocked_cycles::no_mshrs            0                       # number of cycles access was blocked
system.cpu0.dcache.blocked_cycles::no_targets            0                       # number of cycles access was blocked
system.cpu0.dcache.blocked::no_mshrs                0                       # number of cycles access was blocked
system.cpu0.dcache.blocked::no_targets              0                       # number of cycles access was blocked
system.cpu0.dcache.avg_blocked_cycles::no_mshrs          nan                       # average number of cycles each access was blocked
system.cpu0.dcache.avg_blocked_cycles::no_targets          nan                       # average number of cycles each access was blocked
system.cpu0.dcache.fast_writes                      0                       # number of fast writes performed
system.cpu0.dcache.cache_copies                     0                       # number of cache copies performed
system.cpu0.dcache.writebacks::writebacks       392158                       # number of writebacks
system.cpu0.dcache.writebacks::total           392158                       # number of writebacks
system.cpu0.dcache.ReadReq_mshr_misses::cpu0.data      6034776                       # number of ReadReq MSHR misses
system.cpu0.dcache.ReadReq_mshr_misses::total      6034776                       # number of ReadReq MSHR misses
system.cpu0.dcache.WriteReq_mshr_misses::cpu0.data       876681                       # number of WriteReq MSHR misses
system.cpu0.dcache.WriteReq_mshr_misses::total       876681                       # number of WriteReq MSHR misses
system.cpu0.dcache.LoadLockedReq_mshr_misses::cpu0.data        96622                       # number of LoadLockedReq MSHR misses
system.cpu0.dcache.LoadLockedReq_mshr_misses::total        96622                       # number of LoadLockedReq MSHR misses
system.cpu0.dcache.StoreCondReq_mshr_misses::cpu0.data       134328                       # number of StoreCondReq MSHR misses
system.cpu0.dcache.StoreCondReq_mshr_misses::total       134328                       # number of StoreCondReq MSHR misses
system.cpu0.dcache.demand_mshr_misses::cpu0.data      6911457                       # number of demand (read+write) MSHR misses
system.cpu0.dcache.demand_mshr_misses::total      6911457                       # number of demand (read+write) MSHR misses
system.cpu0.dcache.overall_mshr_misses::cpu0.data      6911457                       # number of overall MSHR misses
system.cpu0.dcache.overall_mshr_misses::total      6911457                       # number of overall MSHR misses
system.cpu0.dcache.ReadReq_mshr_uncacheable::cpu0.data          259                       # number of ReadReq MSHR uncacheable
system.cpu0.dcache.ReadReq_mshr_uncacheable::total          259                       # number of ReadReq MSHR uncacheable
system.cpu0.dcache.WriteReq_mshr_uncacheable::cpu0.data        24307                       # number of WriteReq MSHR uncacheable
system.cpu0.dcache.WriteReq_mshr_uncacheable::total        24307                       # number of WriteReq MSHR uncacheable
system.cpu0.dcache.overall_mshr_uncacheable_misses::cpu0.data        24566                       # number of overall MSHR uncacheable misses
system.cpu0.dcache.overall_mshr_uncacheable_misses::total        24566                       # number of overall MSHR uncacheable misses
system.cpu0.dcache.ReadReq_mshr_miss_latency::cpu0.data 382190615000                       # number of ReadReq MSHR miss cycles
system.cpu0.dcache.ReadReq_mshr_miss_latency::total 382190615000                       # number of ReadReq MSHR miss cycles
system.cpu0.dcache.WriteReq_mshr_miss_latency::cpu0.data  10960979000                       # number of WriteReq MSHR miss cycles
system.cpu0.dcache.WriteReq_mshr_miss_latency::total  10960979000                       # number of WriteReq MSHR miss cycles
system.cpu0.dcache.LoadLockedReq_mshr_miss_latency::cpu0.data    976433000                       # number of LoadLockedReq MSHR miss cycles
system.cpu0.dcache.LoadLockedReq_mshr_miss_latency::total    976433000                       # number of LoadLockedReq MSHR miss cycles
system.cpu0.dcache.StoreCondReq_mshr_miss_latency::cpu0.data    650962500                       # number of StoreCondReq MSHR miss cycles
system.cpu0.dcache.StoreCondReq_mshr_miss_latency::total    650962500                       # number of StoreCondReq MSHR miss cycles
system.cpu0.dcache.StoreCondFailReq_mshr_miss_latency::cpu0.data      2640500                       # number of StoreCondFailReq MSHR miss cycles
system.cpu0.dcache.StoreCondFailReq_mshr_miss_latency::total      2640500                       # number of StoreCondFailReq MSHR miss cycles
system.cpu0.dcache.demand_mshr_miss_latency::cpu0.data 393151594000                       # number of demand (read+write) MSHR miss cycles
system.cpu0.dcache.demand_mshr_miss_latency::total 393151594000                       # number of demand (read+write) MSHR miss cycles
system.cpu0.dcache.overall_mshr_miss_latency::cpu0.data 393151594000                       # number of overall MSHR miss cycles
system.cpu0.dcache.overall_mshr_miss_latency::total 393151594000                       # number of overall MSHR miss cycles
system.cpu0.dcache.ReadReq_mshr_uncacheable_latency::cpu0.data     58897000                       # number of ReadReq MSHR uncacheable cycles
system.cpu0.dcache.ReadReq_mshr_uncacheable_latency::total     58897000                       # number of ReadReq MSHR uncacheable cycles
system.cpu0.dcache.WriteReq_mshr_uncacheable_latency::cpu0.data   5502817500                       # number of WriteReq MSHR uncacheable cycles
system.cpu0.dcache.WriteReq_mshr_uncacheable_latency::total   5502817500                       # number of WriteReq MSHR uncacheable cycles
system.cpu0.dcache.overall_mshr_uncacheable_latency::cpu0.data   5561714500                       # number of overall MSHR uncacheable cycles
system.cpu0.dcache.overall_mshr_uncacheable_latency::total   5561714500                       # number of overall MSHR uncacheable cycles
system.cpu0.dcache.ReadReq_mshr_miss_rate::cpu0.data     0.048852                       # mshr miss rate for ReadReq accesses
system.cpu0.dcache.ReadReq_mshr_miss_rate::total     0.048852                       # mshr miss rate for ReadReq accesses
system.cpu0.dcache.WriteReq_mshr_miss_rate::cpu0.data     0.043201                       # mshr miss rate for WriteReq accesses
system.cpu0.dcache.WriteReq_mshr_miss_rate::total     0.043201                       # mshr miss rate for WriteReq accesses
system.cpu0.dcache.LoadLockedReq_mshr_miss_rate::cpu0.data     0.429549                       # mshr miss rate for LoadLockedReq accesses
system.cpu0.dcache.LoadLockedReq_mshr_miss_rate::total     0.429549                       # mshr miss rate for LoadLockedReq accesses
system.cpu0.dcache.StoreCondReq_mshr_miss_rate::cpu0.data     0.620241                       # mshr miss rate for StoreCondReq accesses
system.cpu0.dcache.StoreCondReq_mshr_miss_rate::total     0.620241                       # mshr miss rate for StoreCondReq accesses
system.cpu0.dcache.demand_mshr_miss_rate::cpu0.data     0.048055                       # mshr miss rate for demand accesses
system.cpu0.dcache.demand_mshr_miss_rate::total     0.048055                       # mshr miss rate for demand accesses
system.cpu0.dcache.overall_mshr_miss_rate::cpu0.data     0.048055                       # mshr miss rate for overall accesses
system.cpu0.dcache.overall_mshr_miss_rate::total     0.048055                       # mshr miss rate for overall accesses
system.cpu0.dcache.ReadReq_avg_mshr_miss_latency::cpu0.data 63331.367229                       # average ReadReq mshr miss latency
system.cpu0.dcache.ReadReq_avg_mshr_miss_latency::total 63331.367229                       # average ReadReq mshr miss latency
system.cpu0.dcache.WriteReq_avg_mshr_miss_latency::cpu0.data 12502.813452                       # average WriteReq mshr miss latency
system.cpu0.dcache.WriteReq_avg_mshr_miss_latency::total 12502.813452                       # average WriteReq mshr miss latency
system.cpu0.dcache.LoadLockedReq_avg_mshr_miss_latency::cpu0.data 10105.700565                       # average LoadLockedReq mshr miss latency
system.cpu0.dcache.LoadLockedReq_avg_mshr_miss_latency::total 10105.700565                       # average LoadLockedReq mshr miss latency
system.cpu0.dcache.StoreCondReq_avg_mshr_miss_latency::cpu0.data  4846.067090                       # average StoreCondReq mshr miss latency
system.cpu0.dcache.StoreCondReq_avg_mshr_miss_latency::total  4846.067090                       # average StoreCondReq mshr miss latency
system.cpu0.dcache.StoreCondFailReq_avg_mshr_miss_latency::cpu0.data          inf                       # average StoreCondFailReq mshr miss latency
system.cpu0.dcache.StoreCondFailReq_avg_mshr_miss_latency::total          inf                       # average StoreCondFailReq mshr miss latency
system.cpu0.dcache.demand_avg_mshr_miss_latency::cpu0.data 56884.039646                       # average overall mshr miss latency
system.cpu0.dcache.demand_avg_mshr_miss_latency::total 56884.039646                       # average overall mshr miss latency
system.cpu0.dcache.overall_avg_mshr_miss_latency::cpu0.data 56884.039646                       # average overall mshr miss latency
system.cpu0.dcache.overall_avg_mshr_miss_latency::total 56884.039646                       # average overall mshr miss latency
system.cpu0.dcache.ReadReq_avg_mshr_uncacheable_latency::cpu0.data 227401.544402                       # average ReadReq mshr uncacheable latency
system.cpu0.dcache.ReadReq_avg_mshr_uncacheable_latency::total 227401.544402                       # average ReadReq mshr uncacheable latency
system.cpu0.dcache.WriteReq_avg_mshr_uncacheable_latency::cpu0.data 226388.180360                       # average WriteReq mshr uncacheable latency
system.cpu0.dcache.WriteReq_avg_mshr_uncacheable_latency::total 226388.180360                       # average WriteReq mshr uncacheable latency
system.cpu0.dcache.overall_avg_mshr_uncacheable_latency::cpu0.data 226398.864284                       # average overall mshr uncacheable latency
system.cpu0.dcache.overall_avg_mshr_uncacheable_latency::total 226398.864284                       # average overall mshr uncacheable latency
system.cpu0.dcache.no_allocate_misses               0                       # Number of misses that were no-allocate
system.cpu0.icache.tags.replacements           962634                       # number of replacements
system.cpu0.icache.tags.tagsinuse          493.210816                       # Cycle average of tags in use
system.cpu0.icache.tags.total_refs          480502323                       # Total number of references to valid blocks.
system.cpu0.icache.tags.sampled_refs           962634                       # Sample count of references to valid blocks.
system.cpu0.icache.tags.avg_refs           499.153700                       # Average number of references to valid blocks.
system.cpu0.icache.tags.warmup_cycle                0                       # Cycle when the warmup percentage was hit.
system.cpu0.icache.tags.occ_blocks::cpu0.inst   493.210816                       # Average occupied blocks per requestor
system.cpu0.icache.tags.occ_percent::cpu0.inst     0.963302                       # Average percentage of cache occupancy
system.cpu0.icache.tags.occ_percent::total     0.963302                       # Average percentage of cache occupancy
system.cpu0.icache.tags.occ_task_id_blocks::1024          505                       # Occupied blocks per task id
system.cpu0.icache.tags.age_task_id_blocks_1024::2           10                       # Occupied blocks per task id
system.cpu0.icache.tags.age_task_id_blocks_1024::3          326                       # Occupied blocks per task id
system.cpu0.icache.tags.age_task_id_blocks_1024::4          169                       # Occupied blocks per task id
system.cpu0.icache.tags.occ_task_id_percent::1024     0.986328                       # Percentage of cache occupancy per task id
system.cpu0.icache.tags.tag_accesses       1011252619                       # Number of tag accesses
system.cpu0.icache.tags.data_accesses      1011252619                       # Number of data accesses
system.cpu0.icache.ReadReq_hits::cpu0.inst    504181601                       # number of ReadReq hits
system.cpu0.icache.ReadReq_hits::total      504181601                       # number of ReadReq hits
[...]
system.l2.demand_avg_mshr_miss_latency::cpu0.inst 69685.929648                       # average overall mshr miss latency
system.l2.demand_avg_mshr_miss_latency::cpu0.data 65790.607270                       # average overall mshr miss latency
system.l2.demand_avg_mshr_miss_latency::cpu1.inst        59125                       # average overall mshr miss latency
system.l2.demand_avg_mshr_miss_latency::cpu1.data 80857.142857                       # average overall mshr miss latency
system.l2.demand_avg_mshr_miss_latency::cpu2.inst 69080.075188                       # average overall mshr miss latency
system.l2.demand_avg_mshr_miss_latency::cpu2.data 68670.377868                       # average overall mshr miss latency
system.l2.demand_avg_mshr_miss_latency::cpu3.inst 71706.535948                       # average overall mshr miss latency
system.l2.demand_avg_mshr_miss_latency::cpu3.data 70202.754821                       # average overall mshr miss latency
system.l2.demand_avg_mshr_miss_latency::total 67765.759819                       # average overall mshr miss latency
system.l2.overall_avg_mshr_miss_latency::cpu0.inst 69685.929648                       # average overall mshr miss latency
system.l2.overall_avg_mshr_miss_latency::cpu0.data 65790.607270                       # average overall mshr miss latency
system.l2.overall_avg_mshr_miss_latency::cpu1.inst        59125                       # average overall mshr miss latency
system.l2.overall_avg_mshr_miss_latency::cpu1.data 80857.142857                       # average overall mshr miss latency
system.l2.overall_avg_mshr_miss_latency::cpu2.inst 69080.075188                       # average overall mshr miss latency
system.l2.overall_avg_mshr_miss_latency::cpu2.data 68670.377868                       # average overall mshr miss latency
system.l2.overall_avg_mshr_miss_latency::cpu3.inst 71706.535948                       # average overall mshr miss latency
system.l2.overall_avg_mshr_miss_latency::cpu3.data 70202.754821                       # average overall mshr miss latency
system.l2.overall_avg_mshr_miss_latency::total 67765.759819                       # average overall mshr miss latency
system.l2.ReadReq_avg_mshr_uncacheable_latency::cpu0.data 214849.290780                       # average ReadReq mshr uncacheable latency
system.l2.ReadReq_avg_mshr_uncacheable_latency::total 214849.290780                       # average ReadReq mshr uncacheable latency
system.l2.WriteReq_avg_mshr_uncacheable_latency::cpu0.data 215004.672897                       # average WriteReq mshr uncacheable latency
system.l2.WriteReq_avg_mshr_uncacheable_latency::cpu1.data       216125                       # average WriteReq mshr uncacheable latency
system.l2.WriteReq_avg_mshr_uncacheable_latency::cpu2.data 214642.857143                       # average WriteReq mshr uncacheable latency
system.l2.WriteReq_avg_mshr_uncacheable_latency::cpu3.data       215000                       # average WriteReq mshr uncacheable latency
system.l2.WriteReq_avg_mshr_uncacheable_latency::total 215020.161290                       # average WriteReq mshr uncacheable latency
system.l2.overall_avg_mshr_uncacheable_latency::cpu0.data 214892.030848                       # average overall mshr uncacheable latency
system.l2.overall_avg_mshr_uncacheable_latency::cpu1.data       216125                       # average overall mshr uncacheable latency
system.l2.overall_avg_mshr_uncacheable_latency::cpu2.data 214642.857143                       # average overall mshr uncacheable latency
system.l2.overall_avg_mshr_uncacheable_latency::cpu3.data       215000                       # average overall mshr uncacheable latency
system.l2.overall_avg_mshr_uncacheable_latency::total 214901.477833                       # average overall mshr uncacheable latency
system.l2.no_allocate_misses                        0                       # Number of misses that were no-allocate
system.membus.trans_dist::ReadReq                 282                       # Transaction distribution
system.membus.trans_dist::ReadResp              12613                       # Transaction distribution
system.membus.trans_dist::WriteReq                124                       # Transaction distribution
system.membus.trans_dist::WriteResp               124                       # Transaction distribution
system.membus.trans_dist::Writeback              7000                       # Transaction distribution
system.membus.trans_dist::CleanEvict            11792                       # Transaction distribution
system.membus.trans_dist::UpgradeReq              181                       # Transaction distribution
system.membus.trans_dist::SCUpgradeReq            114                       # Transaction distribution
system.membus.trans_dist::UpgradeResp             112                       # Transaction distribution
system.membus.trans_dist::ReadExReq              8880                       # Transaction distribution
system.membus.trans_dist::ReadExResp             8874                       # Transaction distribution
system.membus.trans_dist::ReadSharedReq         12331                       # Transaction distribution
system.membus.pkt_count_system.l2.mem_side::system.bridge.slave          812                       # Packet count per connected master and slave (bytes)
system.membus.pkt_count_system.l2.mem_side::system.mem_ctrls.port        61615                       # Packet count per connected master and slave (bytes)
system.membus.pkt_count_system.l2.mem_side::total        62427                       # Packet count per connected master and slave (bytes)
system.membus.pkt_count::total                  62427                       # Packet count per connected master and slave (bytes)
system.membus.pkt_size_system.l2.mem_side::system.bridge.slave          588                       # Cumulative packet size per connected master and slave (bytes)
system.membus.pkt_size_system.l2.mem_side::system.mem_ctrls.port      1805120                       # Cumulative packet size per connected master and slave (bytes)
system.membus.pkt_size_system.l2.mem_side::total      1805708                       # Cumulative packet size per connected master and slave (bytes)
system.membus.pkt_size::total                 1805708                       # Cumulative packet size per connected master and slave (bytes)
system.membus.snoops                              189                       # Total snoops (count)
system.membus.snoop_fanout::samples             40704                       # Request fanout histogram
system.membus.snoop_fanout::mean                    1                       # Request fanout histogram
system.membus.snoop_fanout::stdev                   0                       # Request fanout histogram
system.membus.snoop_fanout::underflows              0      0.00%      0.00% # Request fanout histogram
system.membus.snoop_fanout::0                       0      0.00%      0.00% # Request fanout histogram
system.membus.snoop_fanout::1                   40704    100.00%    100.00% # Request fanout histogram
system.membus.snoop_fanout::2                       0      0.00%    100.00% # Request fanout histogram
system.membus.snoop_fanout::overflows               0      0.00%    100.00% # Request fanout histogram
system.membus.snoop_fanout::min_value               1                       # Request fanout histogram
system.membus.snoop_fanout::max_value               1                       # Request fanout histogram
system.membus.snoop_fanout::total               40704                       # Request fanout histogram
system.membus.reqLayer0.occupancy              666000                       # Layer occupancy (ticks)
system.membus.reqLayer0.utilization               0.0                       # Layer utilization (%)
system.membus.reqLayer1.occupancy            68277000                       # Layer occupancy (ticks)
system.membus.reqLayer1.utilization               2.4                       # Layer utilization (%)
system.membus.respLayer2.occupancy          113839642                       # Layer occupancy (ticks)
system.membus.respLayer2.utilization              4.0                       # Layer utilization (%)
system.tol2bus.trans_dist::ReadReq                282                       # Transaction distribution
system.tol2bus.trans_dist::ReadResp             24639                       # Transaction distribution
system.tol2bus.trans_dist::WriteReq               124                       # Transaction distribution
system.tol2bus.trans_dist::WriteResp              124                       # Transaction distribution
system.tol2bus.trans_dist::Writeback            20649                       # Transaction distribution
system.tol2bus.trans_dist::CleanEvict           29676                       # Transaction distribution
system.tol2bus.trans_dist::UpgradeReq             193                       # Transaction distribution
system.tol2bus.trans_dist::SCUpgradeReq           122                       # Transaction distribution
system.tol2bus.trans_dist::UpgradeResp            315                       # Transaction distribution
system.tol2bus.trans_dist::ReadExReq            10208                       # Transaction distribution
system.tol2bus.trans_dist::ReadExResp           10208                       # Transaction distribution
system.tol2bus.trans_dist::ReadCleanReq         11249                       # Transaction distribution
system.tol2bus.trans_dist::ReadSharedReq        13108                       # Transaction distribution
system.tol2bus.pkt_count_system.cpu0.icache.mem_side::system.l2.cpu_side        12807                       # Packet count per connected master and slave (bytes)
system.tol2bus.pkt_count_system.cpu0.dcache.mem_side::system.l2.cpu_side        38489                       # Packet count per connected master and slave (bytes)
system.tol2bus.pkt_count_system.cpu1.icache.mem_side::system.l2.cpu_side           28                       # Packet count per connected master and slave (bytes)
system.tol2bus.pkt_count_system.cpu1.dcache.mem_side::system.l2.cpu_side           72                       # Packet count per connected master and slave (bytes)
system.tol2bus.pkt_count_system.cpu2.icache.mem_side::system.l2.cpu_side        13796                       # Packet count per connected master and slave (bytes)
system.tol2bus.pkt_count_system.cpu2.dcache.mem_side::system.l2.cpu_side        20362                       # Packet count per connected master and slave (bytes)
system.tol2bus.pkt_count_system.cpu3.icache.mem_side::system.l2.cpu_side         4043                       # Packet count per connected master and slave (bytes)
system.tol2bus.pkt_count_system.cpu3.dcache.mem_side::system.l2.cpu_side         9435                       # Packet count per connected master and slave (bytes)
system.tol2bus.pkt_count::total                 99032                       # Packet count per connected master and slave (bytes)
system.tol2bus.pkt_size_system.cpu0.icache.mem_side::system.l2.cpu_side       304000                       # Cumulative packet size per connected master and slave (bytes)
system.tol2bus.pkt_size_system.cpu0.dcache.mem_side::system.l2.cpu_side      1342354                       # Cumulative packet size per connected master and slave (bytes)
system.tol2bus.pkt_size_system.cpu1.icache.mem_side::system.l2.cpu_side          704                       # Cumulative packet size per connected master and slave (bytes)
system.tol2bus.pkt_size_system.cpu1.dcache.mem_side::system.l2.cpu_side          864                       # Cumulative packet size per connected master and slave (bytes)
system.tol2bus.pkt_size_system.cpu2.icache.mem_side::system.l2.cpu_side       310528                       # Cumulative packet size per connected master and slave (bytes)
system.tol2bus.pkt_size_system.cpu2.dcache.mem_side::system.l2.cpu_side       683370                       # Cumulative packet size per connected master and slave (bytes)
system.tol2bus.pkt_size_system.cpu3.icache.mem_side::system.l2.cpu_side       104640                       # Cumulative packet size per connected master and slave (bytes)
system.tol2bus.pkt_size_system.cpu3.dcache.mem_side::system.l2.cpu_side       311664                       # Cumulative packet size per connected master and slave (bytes)
system.tol2bus.pkt_size::total                3058124                       # Cumulative packet size per connected master and slave (bytes)
system.tol2bus.snoops                           21865                       # Total snoops (count)
system.tol2bus.snoop_fanout::samples            90668                       # Request fanout histogram
system.tol2bus.snoop_fanout::mean            7.234283                       # Request fanout histogram
system.tol2bus.snoop_fanout::stdev           0.423552                       # Request fanout histogram
system.tol2bus.snoop_fanout::underflows             0      0.00%      0.00% # Request fanout histogram
system.tol2bus.snoop_fanout::0                      0      0.00%      0.00% # Request fanout histogram
system.tol2bus.snoop_fanout::1                      0      0.00%      0.00% # Request fanout histogram
system.tol2bus.snoop_fanout::2                      0      0.00%      0.00% # Request fanout histogram
system.tol2bus.snoop_fanout::3                      0      0.00%      0.00% # Request fanout histogram
system.tol2bus.snoop_fanout::4                      0      0.00%      0.00% # Request fanout histogram
system.tol2bus.snoop_fanout::5                      0      0.00%      0.00% # Request fanout histogram
system.tol2bus.snoop_fanout::6                      0      0.00%      0.00% # Request fanout histogram
system.tol2bus.snoop_fanout::7                  69426     76.57%     76.57% # Request fanout histogram
system.tol2bus.snoop_fanout::8                  21242     23.43%    100.00% # Request fanout histogram
system.tol2bus.snoop_fanout::overflows              0      0.00%    100.00% # Request fanout histogram
system.tol2bus.snoop_fanout::min_value              7                       # Request fanout histogram
system.tol2bus.snoop_fanout::max_value              8                       # Request fanout histogram
system.tol2bus.snoop_fanout::total              90668                       # Request fanout histogram
system.tol2bus.reqLayer0.occupancy           48424499                       # Layer occupancy (ticks)
system.tol2bus.reqLayer0.utilization              1.7                       # Layer utilization (%)
system.tol2bus.respLayer0.occupancy           7138476                       # Layer occupancy (ticks)
system.tol2bus.respLayer0.utilization             0.2                       # Layer utilization (%)
system.tol2bus.respLayer1.occupancy          19744991                       # Layer occupancy (ticks)
system.tol2bus.respLayer1.utilization             0.7                       # Layer utilization (%)
system.tol2bus.respLayer2.occupancy             16500                       # Layer occupancy (ticks)
system.tol2bus.respLayer2.utilization             0.0                       # Layer utilization (%)
system.tol2bus.respLayer3.occupancy             38499                       # Layer occupancy (ticks)
system.tol2bus.respLayer3.utilization             0.0                       # Layer utilization (%)
system.tol2bus.respLayer4.occupancy           7285984                       # Layer occupancy (ticks)
system.tol2bus.respLayer4.utilization             0.3                       # Layer utilization (%)
system.tol2bus.respLayer5.occupancy          10686375                       # Layer occupancy (ticks)
system.tol2bus.respLayer5.utilization             0.4                       # Layer utilization (%)
system.tol2bus.respLayer6.occupancy           2456492                       # Layer occupancy (ticks)
system.tol2bus.respLayer6.utilization             0.1                       # Layer utilization (%)
system.tol2bus.respLayer7.occupancy           5090965                       # Layer occupancy (ticks)
system.tol2bus.respLayer7.utilization             0.2                       # Layer utilization (%)
system.tsunami.ethernet.descDMAReads                0                       # Number of descriptors the device read w/ DMA
system.tsunami.ethernet.descDMAWrites               0                       # Number of descriptors the device wrote w/ DMA
system.tsunami.ethernet.descDmaReadBytes            0                       # number of descriptor bytes read w/ DMA
system.tsunami.ethernet.descDmaWriteBytes            0                       # number of descriptor bytes write w/ DMA
system.tsunami.ethernet.postedSwi                   0                       # number of software interrupts posted to CPU
system.tsunami.ethernet.coalescedSwi              nan                       # average number of Swi's coalesced into each post
system.tsunami.ethernet.totalSwi                    0                       # total number of Swi written to ISR
system.tsunami.ethernet.postedRxIdle                0                       # number of rxIdle interrupts posted to CPU
system.tsunami.ethernet.coalescedRxIdle           nan                       # average number of RxIdle's coalesced into each post
system.tsunami.ethernet.totalRxIdle                 0                       # total number of RxIdle written to ISR
system.tsunami.ethernet.postedRxOk                  0                       # number of RxOk interrupts posted to CPU
system.tsunami.ethernet.coalescedRxOk             nan                       # average number of RxOk's coalesced into each post
system.tsunami.ethernet.totalRxOk                   0                       # total number of RxOk written to ISR
system.tsunami.ethernet.postedRxDesc                0                       # number of RxDesc interrupts posted to CPU
system.tsunami.ethernet.coalescedRxDesc           nan                       # average number of RxDesc's coalesced into each post
system.tsunami.ethernet.totalRxDesc                 0                       # total number of RxDesc written to ISR
system.tsunami.ethernet.postedTxOk                  0                       # number of TxOk interrupts posted to CPU
system.tsunami.ethernet.coalescedTxOk             nan                       # average number of TxOk's coalesced into each post
system.tsunami.ethernet.totalTxOk                   0                       # total number of TxOk written to ISR
system.tsunami.ethernet.postedTxIdle                0                       # number of TxIdle interrupts posted to CPU
system.tsunami.ethernet.coalescedTxIdle           nan                       # average number of TxIdle's coalesced into each post
system.tsunami.ethernet.totalTxIdle                 0                       # total number of TxIdle written to ISR
system.tsunami.ethernet.postedTxDesc                0                       # number of TxDesc interrupts posted to CPU
system.tsunami.ethernet.coalescedTxDesc           nan                       # average number of TxDesc's coalesced into each post
system.tsunami.ethernet.totalTxDesc                 0                       # total number of TxDesc written to ISR
system.tsunami.ethernet.postedRxOrn                 0                       # number of RxOrn posted to CPU
system.tsunami.ethernet.coalescedRxOrn            nan                       # average number of RxOrn's coalesced into each post
system.tsunami.ethernet.totalRxOrn                  0                       # total number of RxOrn written to ISR
system.tsunami.ethernet.coalescedTotal            nan                       # average number of interrupts coalesced into each post
system.tsunami.ethernet.postedInterrupts            0                       # number of posts to CPU
system.tsunami.ethernet.droppedPackets              0                       # number of packets dropped

---------- End Simulation Statistics   ----------
