gem5 Simulator System.  http://gem5.org
gem5 is copyrighted software; use the --copyright option for details.

gem5 compiled Dec 11 2015 20:33:09
gem5 started Dec 11 2015 20:33:39
gem5 executing on zizzer, pid 896
command line: build/SPARC/gem5.opt -d build/SPARC/tests/opt/quick/se/50.vortex/sparc/linux/simple-timing -re /z/atgutier/gem5/gem5/tests/run.py build/SPARC/tests/opt/quick/se/50.vortex/sparc/linux/simple-timing

Global frequency set at 1000000000000 ticks per second
info: Entering event queue @ 0.  Starting simulation...
info: Increasing stack size by one page.
Exiting @ tick 203115876500 because target called exit()
