
---------- Begin Simulation Statistics ----------
sim_seconds                                  0.131393                       # Number of seconds simulated
sim_ticks                                131393100000                       # Number of ticks simulated
final_tick                               131393100000                       # Number of ticks from beginning of simulation (restored from checkpoints and never reset)
sim_freq                                 1000000000000                       # Frequency of simulated ticks
host_inst_rate                                1953897                       # Simulator instruction rate (inst/s)
host_tick_rate                             1159762651                       # Simulator tick rate (ticks/s)
host_mem_usage                                 211876                       # Number of bytes of host memory used
host_seconds                                   113.29                       # Real time elapsed on the host
sim_insts                                   221363018                       # Number of instructions simulated
system.physmem.bytes_read                  1698379042                       # Number of bytes read from this memory
system.physmem.bytes_inst_read             1387955288                       # Number of instructions bytes read from this memory
system.physmem.bytes_written                 99822189                       # Number of bytes written to this memory
system.physmem.num_reads                    230176419                       # Number of read requests responded to by this memory
system.physmem.num_writes                    20515730                       # Number of write requests responded to by this memory
system.physmem.num_other                            0                       # Number of other requests responded to by this memory
system.physmem.bw_read                    12925937831                       # Total read bandwidth from this memory (bytes/s)
system.physmem.bw_inst_read               10563380330                       # Instruction read bandwidth from this memory (bytes/s)
system.physmem.bw_write                     759721698                       # Write bandwidth from this memory (bytes/s)
system.physmem.bw_total                   13685659529                       # Total bandwidth to/from this memory (bytes/s)
system.cpu.workload.num_syscalls                  400                       # Number of system calls
system.cpu.numCycles                        262786201                       # number of cpu cycles simulated
system.cpu.numWorkItemsStarted                      0                       # number of work items this cpu started
system.cpu.numWorkItemsCompleted                    0                       # number of work items this cpu completed
system.cpu.num_insts                        221363018                       # Number of instructions executed
system.cpu.num_int_alu_accesses             220339607                       # Number of integer alu accesses
system.cpu.num_fp_alu_accesses                2162459                       # Number of float alu accesses
system.cpu.num_func_calls                           0                       # number of times a function call or return occured
system.cpu.num_conditional_control_insts      8268471                       # number of instructions that are conditional controls
system.cpu.num_int_insts                    220339607                       # number of integer instructions
system.cpu.num_fp_insts                       2162459                       # number of float instructions
system.cpu.num_int_register_reads           567557364                       # number of times the integer registers were read
system.cpu.num_int_register_writes          232532006                       # number of times the integer registers were written
system.cpu.num_fp_register_reads              3037165                       # number of times the floating registers were read
system.cpu.num_fp_register_writes             1831403                       # number of times the floating registers were written
system.cpu.num_mem_refs                      77165306                       # number of memory refs
system.cpu.num_load_insts                    56649590                       # Number of load instructions
system.cpu.num_store_insts                   20515716                       # Number of store instructions
system.cpu.num_idle_cycles                          0                       # Number of idle cycles
system.cpu.num_busy_cycles                  262786201                       # Number of busy cycles
system.cpu.not_idle_fraction                        1                       # Percentage of non-idle cycles
system.cpu.idle_fraction                            0                       # Percentage of idle cycles

---------- End Simulation Statistics   ----------
