
---------- Begin Simulation Statistics ----------
sim_seconds                                  0.131393                       # Number of seconds simulated
sim_ticks                                131393279000                       # Number of ticks simulated
final_tick                               131393279000                       # Number of ticks from beginning of simulation (restored from checkpoints and never reset)
sim_freq                                 1000000000000                       # Frequency of simulated ticks
host_inst_rate                                1131336                       # Simulator instruction rate (inst/s)
host_op_rate                                  1896222                       # Simulator op (including micro ops) rate (op/s)
host_tick_rate                             1125528252                       # Simulator tick rate (ticks/s)
host_mem_usage                                 303676                       # Number of bytes of host memory used
host_seconds                                   116.74                       # Real time elapsed on the host
sim_insts                                   132071193                       # Number of instructions simulated
sim_ops                                     221363385                       # Number of ops (including micro ops) simulated
system.voltage_domain.voltage                       1                       # Voltage in Volts
system.clk_domain.clock                          1000                       # Clock period in ticks
system.physmem.bytes_read::cpu.inst        1387954936                       # Number of bytes read from this memory
system.physmem.bytes_read::cpu.data         310423752                       # Number of bytes read from this memory
system.physmem.bytes_read::total           1698378688                       # Number of bytes read from this memory
system.physmem.bytes_inst_read::cpu.inst   1387954936                       # Number of instructions bytes read from this memory
system.physmem.bytes_inst_read::total      1387954936                       # Number of instructions bytes read from this memory
system.physmem.bytes_written::cpu.data       99822191                       # Number of bytes written to this memory
system.physmem.bytes_written::total          99822191                       # Number of bytes written to this memory
system.physmem.num_reads::cpu.inst          173494367                       # Number of read requests responded to by this memory
system.physmem.num_reads::cpu.data           56682005                       # Number of read requests responded to by this memory
system.physmem.num_reads::total             230176372                       # Number of read requests responded to by this memory
system.physmem.num_writes::cpu.data          20515731                       # Number of write requests responded to by this memory
system.physmem.num_writes::total             20515731                       # Number of write requests responded to by this memory
system.physmem.bw_read::cpu.inst          10563363260                       # Total read bandwidth from this memory (bytes/s)
system.physmem.bw_read::cpu.data           2362554267                       # Total read bandwidth from this memory (bytes/s)
system.physmem.bw_read::total             12925917527                       # Total read bandwidth from this memory (bytes/s)
system.physmem.bw_inst_read::cpu.inst     10563363260                       # Instruction read bandwidth from this memory (bytes/s)
system.physmem.bw_inst_read::total        10563363260                       # Instruction read bandwidth from this memory (bytes/s)
system.physmem.bw_write::cpu.data           759720678                       # Write bandwidth from this memory (bytes/s)
system.physmem.bw_write::total              759720678                       # Write bandwidth from this memory (bytes/s)
system.physmem.bw_total::cpu.inst         10563363260                       # Total bandwidth to/from this memory (bytes/s)
system.physmem.bw_total::cpu.data          3122274945                       # Total bandwidth to/from this memory (bytes/s)
system.physmem.bw_total::total            13685638205                       # Total bandwidth to/from this memory (bytes/s)
system.membus.throughput                  13685638205                       # Throughput (bytes/s)
system.membus.data_through_bus             1798200879                       # Total data (bytes)
system.membus.snoop_data_through_bus                0                       # Total snoop data (bytes)
system.cpu_clk_domain.clock                       500                       # Clock period in ticks
system.cpu.apic_clk_domain.clock                 8000                       # Clock period in ticks
system.cpu.workload.num_syscalls                  400                       # Number of system calls
system.cpu.numCycles                        262786559                       # number of cpu cycles simulated
system.cpu.numWorkItemsStarted                      0                       # number of work items this cpu started
system.cpu.numWorkItemsCompleted                    0                       # number of work items this cpu completed
system.cpu.committedInsts                   132071193                       # Number of instructions committed
system.cpu.committedOps                     221363385                       # Number of ops (including micro ops) committed
system.cpu.num_int_alu_accesses             219019986                       # Number of integer alu accesses
system.cpu.num_fp_alu_accesses                2162459                       # Number of float alu accesses
system.cpu.num_func_calls                     1595632                       # number of times a function call or return occured
system.cpu.num_conditional_control_insts      8268466                       # number of instructions that are conditional controls
system.cpu.num_int_insts                    219019986                       # number of integer instructions
system.cpu.num_fp_insts                       2162459                       # number of float instructions
system.cpu.num_int_register_reads           519996939                       # number of times the integer registers were read
system.cpu.num_int_register_writes          201355989                       # number of times the integer registers were written
system.cpu.num_fp_register_reads              3037165                       # number of times the floating registers were read
system.cpu.num_fp_register_writes             1831403                       # number of times the floating registers were written
system.cpu.num_cc_register_reads             96962463                       # number of times the CC registers were read
system.cpu.num_cc_register_writes            56242058                       # number of times the CC registers were written
system.cpu.num_mem_refs                      77165304                       # number of memory refs
system.cpu.num_load_insts                    56649587                       # Number of load instructions
system.cpu.num_store_insts                   20515717                       # Number of store instructions
system.cpu.num_idle_cycles                          0                       # Number of idle cycles
system.cpu.num_busy_cycles                  262786559                       # Number of busy cycles
system.cpu.not_idle_fraction                        1                       # Percentage of non-idle cycles
system.cpu.idle_fraction                            0                       # Percentage of idle cycles
system.cpu.Branches                          12326938                       # Number of branches fetched
system.cpu.op_class::No_OpClass               1176721      0.53%      0.53% # Class of executed instruction
system.cpu.op_class::IntAlu                 133863963     60.47%     61.00% # Class of executed instruction
system.cpu.op_class::IntMult                   772953      0.35%     61.35% # Class of executed instruction
system.cpu.op_class::IntDiv                   7031501      3.18%     64.53% # Class of executed instruction
system.cpu.op_class::FloatAdd                 1352943      0.61%     65.14% # Class of executed instruction
system.cpu.op_class::FloatCmp                       0      0.00%     65.14% # Class of executed instruction
system.cpu.op_class::FloatCvt                       0      0.00%     65.14% # Class of executed instruction
system.cpu.op_class::FloatMult                      0      0.00%     65.14% # Class of executed instruction
system.cpu.op_class::FloatDiv                       0      0.00%     65.14% # Class of executed instruction
system.cpu.op_class::FloatSqrt                      0      0.00%     65.14% # Class of executed instruction
system.cpu.op_class::SimdAdd                        0      0.00%     65.14% # Class of executed instruction
system.cpu.op_class::SimdAddAcc                     0      0.00%     65.14% # Class of executed instruction
system.cpu.op_class::SimdAlu                        0      0.00%     65.14% # Class of executed instruction
system.cpu.op_class::SimdCmp                        0      0.00%     65.14% # Class of executed instruction
system.cpu.op_class::SimdCvt                        0      0.00%     65.14% # Class of executed instruction
system.cpu.op_class::SimdMisc                       0      0.00%     65.14% # Class of executed instruction
system.cpu.op_class::SimdMult                       0      0.00%     65.14% # Class of executed instruction
system.cpu.op_class::SimdMultAcc                    0      0.00%     65.14% # Class of executed instruction
system.cpu.op_class::SimdShift                      0      0.00%     65.14% # Class of executed instruction
system.cpu.op_class::SimdShiftAcc                   0      0.00%     65.14% # Class of executed instruction
system.cpu.op_class::SimdSqrt                       0      0.00%     65.14% # Class of executed instruction
system.cpu.op_class::SimdFloatAdd                   0      0.00%     65.14% # Class of executed instruction
system.cpu.op_class::SimdFloatAlu                   0      0.00%     65.14% # Class of executed instruction
system.cpu.op_class::SimdFloatCmp                   0      0.00%     65.14% # Class of executed instruction
system.cpu.op_class::SimdFloatCvt                   0      0.00%     65.14% # Class of executed instruction
system.cpu.op_class::SimdFloatDiv                   0      0.00%     65.14% # Class of executed instruction
system.cpu.op_class::SimdFloatMisc                  0      0.00%     65.14% # Class of executed instruction
system.cpu.op_class::SimdFloatMult                  0      0.00%     65.14% # Class of executed instruction
system.cpu.op_class::SimdFloatMultAcc               0      0.00%     65.14% # Class of executed instruction
system.cpu.op_class::SimdFloatSqrt                  0      0.00%     65.14% # Class of executed instruction
system.cpu.op_class::MemRead                 56649587     25.59%     90.73% # Class of executed instruction
system.cpu.op_class::MemWrite                20515717      9.27%    100.00% # Class of executed instruction
system.cpu.op_class::IprAccess                      0      0.00%    100.00% # Class of executed instruction
system.cpu.op_class::InstPrefetch                   0      0.00%    100.00% # Class of executed instruction
system.cpu.op_class::total                  221363385                       # Class of executed instruction

---------- End Simulation Statistics   ----------
