gem5 Simulator System.  http://gem5.org
gem5 is copyrighted software; use the --copyright option for details.

gem5 compiled May  8 2012 15:17:37
gem5 started May  8 2012 16:37:41
gem5 executing on piton
command line: build/ARM/gem5.opt -d build/ARM/tests/opt/long/se/30.eon/arm/linux/simple-atomic -re tests/run.py build/ARM/tests/opt/long/se/30.eon/arm/linux/simple-atomic
Global frequency set at 1000000000000 ticks per second
info: Entering event queue @ 0.  Starting simulation...
info: Increasing stack size by one page.
Eon, Version 1.1
info: Increasing stack size by one page.
info: Increasing stack size by one page.
info: Increasing stack size by one page.
OO-style eon Time= 0.210000
Exiting @ tick 212344048000 because target called exit()
